REMARK  Name = /ddnB/work/jaydy/dat/BioLip/ligand_nr/h6/1h6v_NDP_B_1.pdb
REMARK                            x       y       z     vdW  Elec       q    Type
REMARK                         _______ _______ _______ _____ _____    ______ ____
ROOT
ATOM      1  C   LIG    1      -15.954  -3.045 136.247  0.00  0.00    +0.180 C 
ATOM      2  O   LIG    1      -16.477  -4.369 136.282  0.00  0.00    -0.331 OA
ATOM      3  C   LIG    1      -17.398  -4.684 135.269  0.00  0.00    +0.238 C 
ATOM      4  C   LIG    1      -17.674  -3.393 134.582  0.00  0.00    +0.208 C 
ATOM      5  C   LIG    1      -16.404  -2.555 134.884  0.00  0.00    +0.213 C 
ATOM      6  O   LIG    1      -15.279  -2.793 133.995  0.00  0.00    -0.218 OA
ENDROOT
BRANCH   3   7
ATOM      7  N   LIG    1      -18.618  -5.113 135.971  0.00  0.00    -0.269 N 
ATOM      8  C   LIG    1      -19.339  -4.409 136.879  0.00  0.00    +0.182 A 
ATOM      9  N   LIG    1      -20.416  -5.109 137.312  0.00  0.00    -0.219 NA
ATOM     10  C   LIG    1      -20.405  -6.278 136.661  0.00  0.00    +0.152 A 
ATOM     11  C   LIG    1      -21.326  -7.485 136.624  0.00  0.00    +0.192 A 
ATOM     12  N   LIG    1      -22.506  -7.590 137.399  0.00  0.00    -0.105 NA
ATOM     13  N   LIG    1      -20.919  -8.474 135.738  0.00  0.00    -0.204 NA
ATOM     14  C   LIG    1      -19.747  -8.338 134.966  0.00  0.00    +0.202 A 
ATOM     15  N   LIG    1      -18.855  -7.306 134.991  0.00  0.00    -0.205 NA
ATOM     16  C   LIG    1      -19.191  -6.279 135.784  0.00  0.00    +0.169 A 
ENDBRANCH   3   7
BRANCH   1  17
ATOM     17  C   LIG    1      -16.455  -2.395 137.537  0.00  0.00    +0.181 C 
BRANCH  17  18
ATOM     18  O   LIG    1      -16.265  -0.996 137.699  0.00  0.00    -0.311 OA
BRANCH  18  19
ATOM     19  P   LIG    1      -17.656  -0.183 137.621  0.00  0.00    +0.219 P 
ATOM     20  O   LIG    1      -17.410   1.184 137.051  0.00  0.00    -0.437 OA
ATOM     21  O   LIG    1      -18.680  -1.137 136.667  0.00  0.00    -0.517 OA
BRANCH  19  22
ATOM     22  O   LIG    1      -18.390  -0.144 139.045  0.00  0.00    -0.270 OA
BRANCH  22  23
ATOM     23  P   LIG    1      -17.698   0.578 140.262  0.00  0.00    +0.219 P 
ATOM     24  O   LIG    1      -17.829  -0.206 141.547  0.00  0.00    -0.437 OA
ATOM     25  O   LIG    1      -16.119   0.785 139.724  0.00  0.00    -0.517 OA
BRANCH  23  26
ATOM     26  O   LIG    1      -18.447   1.982 140.374  0.00  0.00    -0.311 OA
BRANCH  26  27
ATOM     27  C   LIG    1      -18.355   2.897 139.279  0.00  0.00    +0.181 C 
BRANCH  27  28
ATOM     28  C   LIG    1      -17.260   3.923 139.540  0.00  0.00    +0.178 C 
ATOM     29  C   LIG    1      -17.878   5.278 139.854  0.00  0.00    +0.214 C 
ATOM     30  O   LIG    1      -17.943   5.524 141.266  0.00  0.00    -0.218 OA
ATOM     31  C   LIG    1      -16.984   6.285 139.149  0.00  0.00    +0.214 C 
ATOM     32  O   LIG    1      -16.163   6.988 140.105  0.00  0.00    -0.218 OA
ATOM     33  C   LIG    1      -16.159   5.473 138.138  0.00  0.00    +0.178 C 
ATOM     34  O   LIG    1      -16.436   4.087 138.376  0.00  0.00    -0.348 OA
ENDBRANCH  27  28
ENDBRANCH  26  27
ENDBRANCH  23  26
ENDBRANCH  22  23
ENDBRANCH  19  22
ENDBRANCH  18  19
ENDBRANCH  17  18
ENDBRANCH   1  17
BRANCH   4  35
ATOM     35  O   LIG    1      -18.076  -3.671 133.226  0.00  0.00    -0.265 OA
BRANCH  35  36
ATOM     36  P   LIG    1      -19.008  -2.544 132.547  0.00  0.00    +0.533 P 
ATOM     37  O   LIG    1      -20.111  -2.088 133.748  0.00  0.00    -0.115 OA
ATOM     38  O   LIG    1      -18.208  -1.299 132.139  0.00  0.00    -0.115 OA
ATOM     39  O   LIG    1      -19.929  -3.187 131.268  0.00  0.00    -0.222 OA
ENDBRANCH  35  36
ENDBRANCH   4  35
TORSDOF 11
