/ddnB/work/jaydy/dat/BioLip/ligand_nr/h6/1h6v_NDP_B_1.pdb
 OpenBabel01311601043D

 39 42  0  0  1  0  0  0  0  0999 V2000
  -15.2810    1.8120  137.2020 P   0  0  1  0  0  0  0  0  0  0  0  0
  -13.9370    2.4500  137.0030 O   0  0  0  0  0  0  0  0  0  0  0  0
  -16.2490    1.8330  135.8120 O   0  0  0  0  0  0  0  0  0  0  0  0
  -15.0920    0.2520  137.5670 O   0  0  0  0  0  0  0  0  0  0  0  0
  -16.2480   -0.5130  137.2540 C   0  0  0  0  0  0  0  0  0  0  0  0
  -16.0490   -1.9170  136.6820 C   0  0  1  0  0  0  0  0  0  0  0  0
  -17.1980   -2.6450  137.1020 O   0  0  0  0  0  0  0  0  0  0  0  0
  -16.0330   -2.1710  135.1870 C   0  0  1  0  0  0  0  0  0  0  0  0
  -15.1280   -3.2920  134.9940 O   0  0  0  0  0  0  0  0  0  0  0  0
  -17.5170   -2.4510  134.8360 C   0  0  1  0  0  0  0  0  0  0  0  0
  -17.8720   -3.2720  133.7060 O   0  0  0  0  0  0  0  0  0  0  0  0
  -18.0420   -3.0930  136.0720 C   0  0  2  0  0  0  0  0  0  0  0  0
  -19.3640   -2.5220  136.3740 N   0  0  0  0  0  0  0  0  0  0  0  0
  -19.7850   -1.2520  136.1510 C   0  0  0  0  0  0  0  0  0  0  0  0
  -21.0720   -1.0780  136.5400 N   0  0  0  0  0  0  0  0  0  0  0  0
  -21.4990   -2.2580  137.0040 C   0  0  0  0  0  0  0  0  0  0  0  0
  -22.8240   -2.7770  137.5350 C   0  0  0  0  0  0  0  0  0  0  0  0
  -23.9830   -1.9740  137.6600 N   0  0  0  0  0  0  0  0  0  0  0  0
  -22.8050   -4.1250  137.8670 N   0  0  0  0  0  0  0  0  0  0  0  0
  -21.6410   -4.9070  137.7190 C   0  0  0  0  0  0  0  0  0  0  0  0
  -20.4130   -4.4900  137.2980 N   0  0  0  0  0  0  0  0  0  0  0  0
  -20.3460   -3.2090  136.9070 C   0  0  0  0  0  0  0  0  0  0  0  0
  -16.1750    2.5640  138.2990 O   0  0  0  0  0  0  0  0  0  0  0  0
  -15.5690    2.8810  139.7180 P   0  0  1  0  0  0  0  0  0  0  0  0
  -14.3040    2.1010  139.9910 O   0  0  0  0  0  0  0  0  0  0  0  0
  -15.3690    4.5500  139.6740 O   0  0  0  0  0  0  0  0  0  0  0  0
  -16.7190    2.4750  140.7450 O   0  0  0  0  0  0  0  0  0  0  0  0
  -16.8390    1.1050  141.1340 C   0  0  0  0  0  0  0  0  0  0  0  0
  -18.3070    0.7020  141.2000 C   0  0  1  0  0  0  0  0  0  0  0  0
  -19.1070    1.7910  141.6830 O   0  0  0  0  0  0  0  0  0  0  0  0
  -18.8140    0.3460  139.8090 C   0  0  1  0  0  0  0  0  0  0  0  0
  -18.8100   -1.0700  139.5820 O   0  0  0  0  0  0  0  0  0  0  0  0
  -20.2200    0.9210  139.7510 C   0  0  1  0  0  0  0  0  0  0  0  0
  -21.2000   -0.1340  139.8420 O   0  0  0  0  0  0  0  0  0  0  0  0
  -20.3100    1.9200  140.9150 C   0  0  0  0  0  0  0  0  0  0  0  0
  -18.1520   -2.4650  132.3380 P   0  0  0  0  0  0  0  0  0  0  0  0
  -19.6500   -2.2430  132.0930 O   0  0  0  0  0  0  0  0  0  0  0  0
  -17.5590   -3.4570  131.1000 O   0  0  0  0  0  0  0  0  0  0  0  0
  -17.2490   -1.0230  132.2710 O   0  0  0  0  0  0  0  0  0  0  0  0
  1  3  2  6  0  0  0
  1  4  1  0  0  0  0
  1 23  1  0  0  0  0
  2  1  1  0  0  0  0
  5  4  1  0  0  0  0
  6  7  1  0  0  0  0
  6  5  1  6  0  0  0
  8  9  1  6  0  0  0
  8  6  1  0  0  0  0
 10 11  1  6  0  0  0
 10  8  1  0  0  0  0
 10 12  1  0  0  0  0
 12 13  1  1  0  0  0
 12  7  1  0  0  0  0
 13 14  1  0  0  0  0
 14 15  2  0  0  0  0
 16 15  1  0  0  0  0
 17 16  1  0  0  0  0
 17 18  1  0  0  0  0
 19 17  2  0  0  0  0
 20 21  2  0  0  0  0
 20 19  1  0  0  0  0
 21 22  1  0  0  0  0
 22 13  1  0  0  0  0
 22 16  2  0  0  0  0
 24 23  1  6  0  0  0
 24 27  1  0  0  0  0
 24 25  1  0  0  0  0
 26 24  2  0  0  0  0
 28 27  1  0  0  0  0
 29 28  1  6  0  0  0
 29 31  1  0  0  0  0
 30 29  1  0  0  0  0
 31 32  1  1  0  0  0
 33 31  1  0  0  0  0
 33 34  1  1  0  0  0
 35 30  1  0  0  0  0
 35 33  1  0  0  0  0
 36 11  1  0  0  0  0
 36 38  1  0  0  0  0
 37 36  1  0  0  0  0
 39 36  2  0  0  0  0
M  END
$$$$
/ddnB/work/jaydy/dat/BioLip/ligand_nr/h6/1h6v_NDP_B_1.pdb
 OpenBabel01311601043D

 39 42  0  0  1  0  0  0  0  0999 V2000
  -14.8730   -0.4640  139.5160 P   0  0  1  0  0  0  0  0  0  0  0  0
  -15.1110   -0.0570  140.9410 O   0  0  0  0  0  0  0  0  0  0  0  0
  -14.0260   -1.9220  139.3640 O   0  0  0  0  0  0  0  0  0  0  0  0
  -16.2870   -0.7130  138.7800 O   0  0  0  0  0  0  0  0  0  0  0  0
  -16.1460   -0.7970  137.3680 C   0  0  0  0  0  0  0  0  0  0  0  0
  -16.0150   -2.1850  136.7390 C   0  0  1  0  0  0  0  0  0  0  0  0
  -17.2080   -2.8660  137.1140 O   0  0  0  0  0  0  0  0  0  0  0  0
  -15.9910   -2.3760  135.2350 C   0  0  1  0  0  0  0  0  0  0  0  0
  -15.1460   -3.5350  135.0040 O   0  0  0  0  0  0  0  0  0  0  0  0
  -17.4840   -2.5590  134.8540 C   0  0  1  0  0  0  0  0  0  0  0  0
  -17.8660   -3.3110  133.6860 O   0  0  0  0  0  0  0  0  0  0  0  0
  -18.0590   -3.2240  136.0550 C   0  0  2  0  0  0  0  0  0  0  0  0
  -19.3530   -2.5940  136.3660 N   0  0  0  0  0  0  0  0  0  0  0  0
  -19.7190   -1.3070  136.1460 C   0  0  0  0  0  0  0  0  0  0  0  0
  -20.9940   -1.0760  136.5430 N   0  0  0  0  0  0  0  0  0  0  0  0
  -21.4700   -2.2360  137.0110 C   0  0  0  0  0  0  0  0  0  0  0  0
  -22.8130   -2.6960  137.5500 C   0  0  0  0  0  0  0  0  0  0  0  0
  -23.9340   -1.8420  137.6830 N   0  0  0  0  0  0  0  0  0  0  0  0
  -22.8520   -4.0440  137.8830 N   0  0  0  0  0  0  0  0  0  0  0  0
  -21.7250   -4.8760  137.7270 C   0  0  0  0  0  0  0  0  0  0  0  0
  -20.4820   -4.5140  137.2970 N   0  0  0  0  0  0  0  0  0  0  0  0
  -20.3610   -3.2370  136.9060 C   0  0  0  0  0  0  0  0  0  0  0  0
  -13.9710    0.5860  138.7080 O   0  0  0  0  0  0  0  0  0  0  0  0
  -14.0990    2.1260  139.0140 P   0  0  1  0  0  0  0  0  0  0  0  0
  -13.5480    2.4900  140.3730 O   0  0  0  0  0  0  0  0  0  0  0  0
  -13.2950    2.8320  137.7180 O   0  0  0  0  0  0  0  0  0  0  0  0
  -15.6650    2.4210  138.9380 O   0  0  0  0  0  0  0  0  0  0  0  0
  -16.2910    3.0900  140.0370 C   0  0  0  0  0  0  0  0  0  0  0  0
  -17.7880    2.8130  140.0390 C   0  0  1  0  0  0  0  0  0  0  0  0
  -18.2550    2.5570  138.7050 O   0  0  0  0  0  0  0  0  0  0  0  0
  -18.0900    1.5750  140.8710 C   0  0  1  0  0  0  0  0  0  0  0  0
  -18.5180    1.9110  142.1980 O   0  0  0  0  0  0  0  0  0  0  0  0
  -19.1760    0.8440  140.0990 C   0  0  1  0  0  0  0  0  0  0  0  0
  -20.4520    0.9950  140.7570 O   0  0  0  0  0  0  0  0  0  0  0  0
  -19.1600    1.4470  138.6850 C   0  0  0  0  0  0  0  0  0  0  0  0
  -18.0380   -2.4400  132.3400 P   0  0  0  0  0  0  0  0  0  0  0  0
  -17.3300   -1.0810  132.4360 O   0  0  0  0  0  0  0  0  0  0  0  0
  -19.7010   -2.1550  132.1980 O   0  0  0  0  0  0  0  0  0  0  0  0
  -17.5830   -3.3280  130.9620 O   0  0  0  0  0  0  0  0  0  0  0  0
  1  3  2  6  0  0  0
  1  4  1  0  0  0  0
  1 23  1  0  0  0  0
  2  1  1  0  0  0  0
  5  4  1  0  0  0  0
  6  7  1  0  0  0  0
  6  5  1  6  0  0  0
  8  9  1  6  0  0  0
  8  6  1  0  0  0  0
 10 11  1  6  0  0  0
 10  8  1  0  0  0  0
 10 12  1  0  0  0  0
 12 13  1  1  0  0  0
 12  7  1  0  0  0  0
 13 14  1  0  0  0  0
 14 15  2  0  0  0  0
 16 15  1  0  0  0  0
 17 16  1  0  0  0  0
 17 18  1  0  0  0  0
 19 17  2  0  0  0  0
 20 21  2  0  0  0  0
 20 19  1  0  0  0  0
 21 22  1  0  0  0  0
 22 13  1  0  0  0  0
 22 16  2  0  0  0  0
 24 23  1  6  0  0  0
 24 27  1  0  0  0  0
 24 25  1  0  0  0  0
 26 24  2  0  0  0  0
 28 27  1  0  0  0  0
 29 28  1  6  0  0  0
 29 31  1  0  0  0  0
 30 29  1  0  0  0  0
 31 32  1  1  0  0  0
 33 31  1  0  0  0  0
 33 34  1  1  0  0  0
 35 30  1  0  0  0  0
 35 33  1  0  0  0  0
 36 11  1  0  0  0  0
 36 38  1  0  0  0  0
 37 36  1  0  0  0  0
 39 36  2  0  0  0  0
M  END
$$$$
/ddnB/work/jaydy/dat/BioLip/ligand_nr/h6/1h6v_NDP_B_1.pdb
 OpenBabel01311601043D

 39 42  0  0  1  0  0  0  0  0999 V2000
  -14.8800    0.6370  140.0930 P   0  0  1  0  0  0  0  0  0  0  0  0
  -14.7800   -0.6050  140.9310 O   0  0  0  0  0  0  0  0  0  0  0  0
  -13.6890    1.7880  140.4470 O   0  0  0  0  0  0  0  0  0  0  0  0
  -14.6620    0.2600  138.5390 O   0  0  0  0  0  0  0  0  0  0  0  0
  -15.8760   -0.1200  137.9070 C   0  0  0  0  0  0  0  0  0  0  0  0
  -16.5080    0.8580  136.9160 C   0  0  1  0  0  0  0  0  0  0  0  0
  -16.0290    0.4430  135.6410 O   0  0  0  0  0  0  0  0  0  0  0  0
  -18.0080    0.9070  136.6970 C   0  0  1  0  0  0  0  0  0  0  0  0
  -18.3080    2.2920  136.3720 O   0  0  0  0  0  0  0  0  0  0  0  0
  -18.2560   -0.1090  135.5510 C   0  0  1  0  0  0  0  0  0  0  0  0
  -19.3840    0.0320  134.6650 O   0  0  0  0  0  0  0  0  0  0  0  0
  -17.0070   -0.0220  134.7470 C   0  0  2  0  0  0  0  0  0  0  0  0
  -16.5870   -1.3850  134.3830 N   0  0  0  0  0  0  0  0  0  0  0  0
  -15.8630   -2.2530  135.1330 C   0  0  0  0  0  0  0  0  0  0  0  0
  -15.6730   -3.4300  134.4880 N   0  0  0  0  0  0  0  0  0  0  0  0
  -16.2990   -3.3320  133.3090 C   0  0  0  0  0  0  0  0  0  0  0  0
  -16.5300   -4.2770  132.1440 C   0  0  0  0  0  0  0  0  0  0  0  0
  -16.0320   -5.6020  132.1030 N   0  0  0  0  0  0  0  0  0  0  0  0
  -17.3000   -3.7330  131.1240 N   0  0  0  0  0  0  0  0  0  0  0  0
  -17.7970   -2.4160  131.1960 C   0  0  0  0  0  0  0  0  0  0  0  0
  -17.5830   -1.5040  132.1880 N   0  0  0  0  0  0  0  0  0  0  0  0
  -16.8890   -1.9570  133.2410 C   0  0  0  0  0  0  0  0  0  0  0  0
  -16.2540    1.4310  140.3130 O   0  0  0  0  0  0  0  0  0  0  0  0
  -17.3030    0.9030  141.3620 P   0  0  1  0  0  0  0  0  0  0  0  0
  -17.9480   -0.3940  140.9300 O   0  0  0  0  0  0  0  0  0  0  0  0
  -16.3980    0.7990  142.7750 O   0  0  0  0  0  0  0  0  0  0  0  0
  -18.3870    2.0690  141.4680 O   0  0  0  0  0  0  0  0  0  0  0  0
  -19.0900    2.2410  142.7020 C   0  0  0  0  0  0  0  0  0  0  0  0
  -20.5880    2.3420  142.4450 C   0  0  1  0  0  0  0  0  0  0  0  0
  -21.0520    3.6770  142.6920 O   0  0  0  0  0  0  0  0  0  0  0  0
  -20.8910    2.0170  140.9890 C   0  0  1  0  0  0  0  0  0  0  0  0
  -21.3200    0.6580  140.8210 O   0  0  0  0  0  0  0  0  0  0  0  0
  -21.9770    3.0020  140.5900 C   0  0  1  0  0  0  0  0  0  0  0  0
  -23.2530    2.3360  140.4920 O   0  0  0  0  0  0  0  0  0  0  0  0
  -21.9580    4.1000  141.6650 C   0  0  0  0  0  0  0  0  0  0  0  0
  -20.4560   -1.1710  134.7300 P   0  0  0  0  0  0  0  0  0  0  0  0
  -21.6820   -0.8100  135.5800 O   0  0  0  0  0  0  0  0  0  0  0  0
  -19.6500   -2.4520  135.4910 O   0  0  0  0  0  0  0  0  0  0  0  0
  -20.8690   -1.7210  133.1730 O   0  0  0  0  0  0  0  0  0  0  0  0
  1  3  2  6  0  0  0
  1  4  1  0  0  0  0
  1 23  1  0  0  0  0
  2  1  1  0  0  0  0
  5  4  1  0  0  0  0
  6  7  1  0  0  0  0
  6  5  1  6  0  0  0
  8  9  1  6  0  0  0
  8  6  1  0  0  0  0
 10 11  1  6  0  0  0
 10  8  1  0  0  0  0
 10 12  1  0  0  0  0
 12 13  1  1  0  0  0
 12  7  1  0  0  0  0
 13 14  1  0  0  0  0
 14 15  2  0  0  0  0
 16 15  1  0  0  0  0
 17 16  1  0  0  0  0
 17 18  1  0  0  0  0
 19 17  2  0  0  0  0
 20 21  2  0  0  0  0
 20 19  1  0  0  0  0
 21 22  1  0  0  0  0
 22 13  1  0  0  0  0
 22 16  2  0  0  0  0
 24 23  1  6  0  0  0
 24 27  1  0  0  0  0
 24 25  1  0  0  0  0
 26 24  2  0  0  0  0
 28 27  1  0  0  0  0
 29 28  1  6  0  0  0
 29 31  1  0  0  0  0
 30 29  1  0  0  0  0
 31 32  1  1  0  0  0
 33 31  1  0  0  0  0
 33 34  1  1  0  0  0
 35 30  1  0  0  0  0
 35 33  1  0  0  0  0
 36 11  1  0  0  0  0
 36 38  1  0  0  0  0
 37 36  1  0  0  0  0
 39 36  2  0  0  0  0
M  END
$$$$
/ddnB/work/jaydy/dat/BioLip/ligand_nr/h6/1h6v_NDP_B_1.pdb
 OpenBabel01311601043D

 39 42  0  0  1  0  0  0  0  0999 V2000
  -16.2710   -0.6320  134.7030 P   0  0  1  0  0  0  0  0  0  0  0  0
  -17.7130   -0.4480  134.3280 O   0  0  0  0  0  0  0  0  0  0  0  0
  -15.2330    0.4760  133.9520 O   0  0  0  0  0  0  0  0  0  0  0  0
  -16.0870   -0.3850  136.2860 O   0  0  0  0  0  0  0  0  0  0  0  0
  -16.5220    0.9090  136.6790 C   0  0  0  0  0  0  0  0  0  0  0  0
  -15.4880    1.8690  137.2690 C   0  0  1  0  0  0  0  0  0  0  0  0
  -16.1630    2.5090  138.3470 O   0  0  0  0  0  0  0  0  0  0  0  0
  -14.2230    1.3620  137.9350 C   0  0  1  0  0  0  0  0  0  0  0  0
  -13.2160    2.3780  137.6790 O   0  0  0  0  0  0  0  0  0  0  0  0
  -14.6240    1.1880  139.4230 C   0  0  1  0  0  0  0  0  0  0  0  0
  -13.6410    1.2840  140.4730 O   0  0  0  0  0  0  0  0  0  0  0  0
  -15.6410    2.2550  139.6260 C   0  0  2  0  0  0  0  0  0  0  0  0
  -16.7610    1.6950  140.3990 N   0  0  0  0  0  0  0  0  0  0  0  0
  -16.9340    0.4070  140.7890 C   0  0  0  0  0  0  0  0  0  0  0  0
  -18.0750    0.2500  141.5030 N   0  0  0  0  0  0  0  0  0  0  0  0
  -18.6430    1.4580  141.5950 C   0  0  0  0  0  0  0  0  0  0  0  0
  -19.8810    2.0030  142.2850 C   0  0  0  0  0  0  0  0  0  0  0  0
  -20.7730    1.2000  143.0360 N   0  0  0  0  0  0  0  0  0  0  0  0
  -20.0500    3.3730  142.1340 N   0  0  0  0  0  0  0  0  0  0  0  0
  -19.1390    4.1530  141.3930 C   0  0  0  0  0  0  0  0  0  0  0  0
  -18.0410    3.7170  140.7100 N   0  0  0  0  0  0  0  0  0  0  0  0
  -17.7700    2.4110  140.8390 C   0  0  0  0  0  0  0  0  0  0  0  0
  -15.6880   -2.0580  134.2630 O   0  0  0  0  0  0  0  0  0  0  0  0
  -15.9360   -3.3200  135.1730 P   0  0  1  0  0  0  0  0  0  0  0  0
  -16.3830   -4.5250  134.3780 O   0  0  0  0  0  0  0  0  0  0  0  0
  -14.4640   -3.5060  135.9620 O   0  0  0  0  0  0  0  0  0  0  0  0
  -17.0720   -2.8600  136.1940 O   0  0  0  0  0  0  0  0  0  0  0  0
  -18.2730   -3.6310  136.2770 C   0  0  0  0  0  0  0  0  0  0  0  0
  -19.1980   -3.0540  137.3400 C   0  0  1  0  0  0  0  0  0  0  0  0
  -18.5350   -2.0150  138.0750 O   0  0  0  0  0  0  0  0  0  0  0  0
  -20.4250   -2.4350  136.6850 C   0  0  1  0  0  0  0  0  0  0  0  0
  -21.5500   -3.3250  136.7040 O   0  0  0  0  0  0  0  0  0  0  0  0
  -20.6940   -1.1700  137.4830 C   0  0  1  0  0  0  0  0  0  0  0  0
  -21.8460   -1.3460  138.3340 O   0  0  0  0  0  0  0  0  0  0  0  0
  -19.4050   -0.8940  138.2730 C   0  0  0  0  0  0  0  0  0  0  0  0
  -12.8900   -0.0960  140.8330 P   0  0  0  0  0  0  0  0  0  0  0  0
  -13.8710   -1.1930  141.2710 O   0  0  0  0  0  0  0  0  0  0  0  0
  -11.8870    0.2660  142.1480 O   0  0  0  0  0  0  0  0  0  0  0  0
  -11.8640   -0.5930  139.5690 O   0  0  0  0  0  0  0  0  0  0  0  0
  1  3  2  6  0  0  0
  1  4  1  0  0  0  0
  1 23  1  0  0  0  0
  2  1  1  0  0  0  0
  5  4  1  0  0  0  0
  6  7  1  0  0  0  0
  6  5  1  6  0  0  0
  8  9  1  6  0  0  0
  8  6  1  0  0  0  0
 10 11  1  6  0  0  0
 10  8  1  0  0  0  0
 10 12  1  0  0  0  0
 12 13  1  1  0  0  0
 12  7  1  0  0  0  0
 13 14  1  0  0  0  0
 14 15  2  0  0  0  0
 16 15  1  0  0  0  0
 17 16  1  0  0  0  0
 17 18  1  0  0  0  0
 19 17  2  0  0  0  0
 20 21  2  0  0  0  0
 20 19  1  0  0  0  0
 21 22  1  0  0  0  0
 22 13  1  0  0  0  0
 22 16  2  0  0  0  0
 24 23  1  6  0  0  0
 24 27  1  0  0  0  0
 24 25  1  0  0  0  0
 26 24  2  0  0  0  0
 28 27  1  0  0  0  0
 29 28  1  6  0  0  0
 29 31  1  0  0  0  0
 30 29  1  0  0  0  0
 31 32  1  1  0  0  0
 33 31  1  0  0  0  0
 33 34  1  1  0  0  0
 35 30  1  0  0  0  0
 35 33  1  0  0  0  0
 36 11  1  0  0  0  0
 36 38  1  0  0  0  0
 37 36  1  0  0  0  0
 39 36  2  0  0  0  0
M  END
$$$$
/ddnB/work/jaydy/dat/BioLip/ligand_nr/h6/1h6v_NDP_B_1.pdb
 OpenBabel01311601043D

 39 42  0  0  1  0  0  0  0  0999 V2000
  -22.3210   -2.6880  137.4430 P   0  0  1  0  0  0  0  0  0  0  0  0
  -23.2490   -2.2160  136.3610 O   0  0  0  0  0  0  0  0  0  0  0  0
  -23.0530   -3.7430  138.5470 O   0  0  0  0  0  0  0  0  0  0  0  0
  -21.1090   -3.5270  136.7890 O   0  0  0  0  0  0  0  0  0  0  0  0
  -19.8920   -2.7930  136.7870 C   0  0  0  0  0  0  0  0  0  0  0  0
  -19.7810   -1.5840  135.8580 C   0  0  1  0  0  0  0  0  0  0  0  0
  -18.9910   -0.6440  136.5790 O   0  0  0  0  0  0  0  0  0  0  0  0
  -19.0540   -1.6670  134.5300 C   0  0  1  0  0  0  0  0  0  0  0  0
  -19.7430   -0.7370  133.6510 O   0  0  0  0  0  0  0  0  0  0  0  0
  -17.5900   -1.2870  134.8770 C   0  0  1  0  0  0  0  0  0  0  0  0
  -16.7220   -0.6950  133.8900 O   0  0  0  0  0  0  0  0  0  0  0  0
  -17.7480   -0.3300  136.0050 C   0  0  2  0  0  0  0  0  0  0  0  0
  -16.7500   -0.6520  137.0380 N   0  0  0  0  0  0  0  0  0  0  0  0
  -16.3140   -1.8820  137.4090 C   0  0  0  0  0  0  0  0  0  0  0  0
  -15.3750   -1.8040  138.3850 N   0  0  0  0  0  0  0  0  0  0  0  0
  -15.1850   -0.5040  138.6360 C   0  0  0  0  0  0  0  0  0  0  0  0
  -14.2600    0.2800  139.5510 C   0  0  0  0  0  0  0  0  0  0  0  0
  -13.3270   -0.3290  140.4250 N   0  0  0  0  0  0  0  0  0  0  0  0
  -14.3930    1.6570  139.4370 N   0  0  0  0  0  0  0  0  0  0  0  0
  -15.3200    2.2390  138.5470 C   0  0  0  0  0  0  0  0  0  0  0  0
  -16.2100    1.5930  137.7400 N   0  0  0  0  0  0  0  0  0  0  0  0
  -16.1210    0.2550  137.7470 C   0  0  0  0  0  0  0  0  0  0  0  0
  -21.7750   -1.4940  138.3630 O   0  0  0  0  0  0  0  0  0  0  0  0
  -22.4420   -0.0700  138.2730 P   0  0  1  0  0  0  0  0  0  0  0  0
  -22.4380    0.4800  136.8660 O   0  0  0  0  0  0  0  0  0  0  0  0
  -23.9710   -0.3320  138.9200 O   0  0  0  0  0  0  0  0  0  0  0  0
  -21.5650    0.8450  139.2430 O   0  0  0  0  0  0  0  0  0  0  0  0
  -20.6610    1.7890  138.6630 C   0  0  0  0  0  0  0  0  0  0  0  0
  -19.2640    1.6050  139.2420 C   0  0  1  0  0  0  0  0  0  0  0  0
  -18.7980    2.8290  139.8290 O   0  0  0  0  0  0  0  0  0  0  0  0
  -19.2890    0.5530  140.3410 C   0  0  1  0  0  0  0  0  0  0  0  0
  -18.8670   -0.7320  139.8640 O   0  0  0  0  0  0  0  0  0  0  0  0
  -18.3540    1.0900  141.4130 C   0  0  1  0  0  0  0  0  0  0  0  0
  -17.1130    0.3540  141.4140 O   0  0  0  0  0  0  0  0  0  0  0  0
  -18.1630    2.5800  141.0900 C   0  0  0  0  0  0  0  0  0  0  0  0
  -15.6620   -1.7080  133.2190 P   0  0  0  0  0  0  0  0  0  0  0  0
  -14.5020   -0.9670  132.5400 O   0  0  0  0  0  0  0  0  0  0  0  0
  -16.5270   -2.5380  132.0230 O   0  0  0  0  0  0  0  0  0  0  0  0
  -15.1350   -2.8830  134.3320 O   0  0  0  0  0  0  0  0  0  0  0  0
  1  3  2  6  0  0  0
  1  4  1  0  0  0  0
  1 23  1  0  0  0  0
  2  1  1  0  0  0  0
  5  4  1  0  0  0  0
  6  7  1  0  0  0  0
  6  5  1  6  0  0  0
  8  9  1  6  0  0  0
  8  6  1  0  0  0  0
 10 11  1  6  0  0  0
 10  8  1  0  0  0  0
 10 12  1  0  0  0  0
 12 13  1  1  0  0  0
 12  7  1  0  0  0  0
 13 14  1  0  0  0  0
 14 15  2  0  0  0  0
 16 15  1  0  0  0  0
 17 16  1  0  0  0  0
 17 18  1  0  0  0  0
 19 17  2  0  0  0  0
 20 21  2  0  0  0  0
 20 19  1  0  0  0  0
 21 22  1  0  0  0  0
 22 13  1  0  0  0  0
 22 16  2  0  0  0  0
 24 23  1  6  0  0  0
 24 27  1  0  0  0  0
 24 25  1  0  0  0  0
 26 24  2  0  0  0  0
 28 27  1  0  0  0  0
 29 28  1  6  0  0  0
 29 31  1  0  0  0  0
 30 29  1  0  0  0  0
 31 32  1  1  0  0  0
 33 31  1  0  0  0  0
 33 34  1  1  0  0  0
 35 30  1  0  0  0  0
 35 33  1  0  0  0  0
 36 11  1  0  0  0  0
 36 38  1  0  0  0  0
 37 36  1  0  0  0  0
 39 36  2  0  0  0  0
M  END
$$$$
/ddnB/work/jaydy/dat/BioLip/ligand_nr/h6/1h6v_NDP_B_1.pdb
 OpenBabel01311601043D

 39 42  0  0  1  0  0  0  0  0999 V2000
  -15.6210    0.1910  139.6310 P   0  0  1  0  0  0  0  0  0  0  0  0
  -16.0100   -0.1100  141.0490 O   0  0  0  0  0  0  0  0  0  0  0  0
  -14.1530   -0.5160  139.1700 O   0  0  0  0  0  0  0  0  0  0  0  0
  -16.7240   -0.4210  138.6250 O   0  0  0  0  0  0  0  0  0  0  0  0
  -16.2180   -0.5680  137.3040 C   0  0  0  0  0  0  0  0  0  0  0  0
  -16.0160   -1.9840  136.7640 C   0  0  1  0  0  0  0  0  0  0  0  0
  -17.1860   -2.6930  137.1600 O   0  0  0  0  0  0  0  0  0  0  0  0
  -15.9560   -2.2640  135.2750 C   0  0  1  0  0  0  0  0  0  0  0  0
  -15.0580   -3.3980  135.1300 O   0  0  0  0  0  0  0  0  0  0  0  0
  -17.4320   -2.5360  134.8820 C   0  0  1  0  0  0  0  0  0  0  0  0
  -17.7590   -3.3740  133.7560 O   0  0  0  0  0  0  0  0  0  0  0  0
  -18.0010   -3.1510  136.1120 C   0  0  2  0  0  0  0  0  0  0  0  0
  -19.3260   -2.5610  136.3620 N   0  0  0  0  0  0  0  0  0  0  0  0
  -19.7340   -1.2990  136.0810 C   0  0  0  0  0  0  0  0  0  0  0  0
  -21.0280   -1.1020  136.4340 N   0  0  0  0  0  0  0  0  0  0  0  0
  -21.4730   -2.2610  136.9340 C   0  0  0  0  0  0  0  0  0  0  0  0
  -22.8120   -2.7520  137.4560 C   0  0  0  0  0  0  0  0  0  0  0  0
  -23.9680   -1.9380  137.5230 N   0  0  0  0  0  0  0  0  0  0  0  0
  -22.8090   -4.0860  137.8410 N   0  0  0  0  0  0  0  0  0  0  0  0
  -21.6470   -4.8790  137.7490 C   0  0  0  0  0  0  0  0  0  0  0  0
  -20.4070   -4.4850  137.3390 N   0  0  0  0  0  0  0  0  0  0  0  0
  -20.3240   -3.2220  136.9010 C   0  0  0  0  0  0  0  0  0  0  0  0
  -15.3900    1.7540  139.3630 O   0  0  0  0  0  0  0  0  0  0  0  0
  -16.6140    2.7450  139.4130 P   0  0  1  0  0  0  0  0  0  0  0  0
  -16.2440    4.0880  139.9990 O   0  0  0  0  0  0  0  0  0  0  0  0
  -17.1210    2.7930  137.8110 O   0  0  0  0  0  0  0  0  0  0  0  0
  -17.6920    2.0040  140.3270 O   0  0  0  0  0  0  0  0  0  0  0  0
  -18.4770    2.7860  141.2310 C   0  0  0  0  0  0  0  0  0  0  0  0
  -19.3150    1.8790  142.1220 C   0  0  1  0  0  0  0  0  0  0  0  0
  -19.3430    2.3800  143.4670 O   0  0  0  0  0  0  0  0  0  0  0  0
  -20.7520    1.8370  141.6220 C   0  0  1  0  0  0  0  0  0  0  0  0
  -21.0070    0.6770  140.8180 O   0  0  0  0  0  0  0  0  0  0  0  0
  -21.6010    1.8450  142.8830 C   0  0  1  0  0  0  0  0  0  0  0  0
  -22.1650    0.5380  143.1200 O   0  0  0  0  0  0  0  0  0  0  0  0
  -20.6660    2.3040  144.0120 C   0  0  0  0  0  0  0  0  0  0  0  0
  -18.0370   -2.5840  132.3770 P   0  0  0  0  0  0  0  0  0  0  0  0
  -17.4720   -1.1570  132.4030 O   0  0  0  0  0  0  0  0  0  0  0  0
  -19.7220   -2.4800  132.2500 O   0  0  0  0  0  0  0  0  0  0  0  0
  -17.5080   -3.4810  131.0310 O   0  0  0  0  0  0  0  0  0  0  0  0
  1  3  2  6  0  0  0
  1  4  1  0  0  0  0
  1 23  1  0  0  0  0
  2  1  1  0  0  0  0
  5  4  1  0  0  0  0
  6  7  1  0  0  0  0
  6  5  1  6  0  0  0
  8  9  1  6  0  0  0
  8  6  1  0  0  0  0
 10 11  1  6  0  0  0
 10  8  1  0  0  0  0
 10 12  1  0  0  0  0
 12 13  1  1  0  0  0
 12  7  1  0  0  0  0
 13 14  1  0  0  0  0
 14 15  2  0  0  0  0
 16 15  1  0  0  0  0
 17 16  1  0  0  0  0
 17 18  1  0  0  0  0
 19 17  2  0  0  0  0
 20 21  2  0  0  0  0
 20 19  1  0  0  0  0
 21 22  1  0  0  0  0
 22 13  1  0  0  0  0
 22 16  2  0  0  0  0
 24 23  1  6  0  0  0
 24 27  1  0  0  0  0
 24 25  1  0  0  0  0
 26 24  2  0  0  0  0
 28 27  1  0  0  0  0
 29 28  1  6  0  0  0
 29 31  1  0  0  0  0
 30 29  1  0  0  0  0
 31 32  1  1  0  0  0
 33 31  1  0  0  0  0
 33 34  1  1  0  0  0
 35 30  1  0  0  0  0
 35 33  1  0  0  0  0
 36 11  1  0  0  0  0
 36 38  1  0  0  0  0
 37 36  1  0  0  0  0
 39 36  2  0  0  0  0
M  END
$$$$
/ddnB/work/jaydy/dat/BioLip/ligand_nr/h6/1h6v_NDP_B_1.pdb
 OpenBabel01311601043D

 39 42  0  0  1  0  0  0  0  0999 V2000
  -20.8220   -0.6790  135.4670 P   0  0  1  0  0  0  0  0  0  0  0  0
  -21.8570    0.0420  136.2810 O   0  0  0  0  0  0  0  0  0  0  0  0
  -20.9320   -0.3660  133.8060 O   0  0  0  0  0  0  0  0  0  0  0  0
  -19.3490   -0.1810  135.8990 O   0  0  0  0  0  0  0  0  0  0  0  0
  -19.3790    1.0970  136.5190 C   0  0  0  0  0  0  0  0  0  0  0  0
  -18.0840    1.9090  136.5580 C   0  0  1  0  0  0  0  0  0  0  0  0
  -18.2260    2.7630  137.6890 O   0  0  0  0  0  0  0  0  0  0  0  0
  -16.7420    1.2520  136.8150 C   0  0  1  0  0  0  0  0  0  0  0  0
  -15.7740    2.0410  136.0710 O   0  0  0  0  0  0  0  0  0  0  0  0
  -16.5870    1.3000  138.3580 C   0  0  1  0  0  0  0  0  0  0  0  0
  -15.2840    1.3220  138.9740 O   0  0  0  0  0  0  0  0  0  0  0  0
  -17.3100    2.5460  138.7310 C   0  0  2  0  0  0  0  0  0  0  0  0
  -18.1310    2.2750  139.9220 N   0  0  0  0  0  0  0  0  0  0  0  0
  -18.4460    1.0650  140.4490 C   0  0  0  0  0  0  0  0  0  0  0  0
  -19.2110    1.1900  141.5610 N   0  0  0  0  0  0  0  0  0  0  0  0
  -19.3790    2.5010  141.7700 C   0  0  0  0  0  0  0  0  0  0  0  0
  -20.0650    3.3290  142.8430 C   0  0  0  0  0  0  0  0  0  0  0  0
  -20.7540    2.7640  143.9430 N   0  0  0  0  0  0  0  0  0  0  0  0
  -19.9370    4.7000  142.6610 N   0  0  0  0  0  0  0  0  0  0  0  0
  -19.2330    5.2370  141.5630 C   0  0  0  0  0  0  0  0  0  0  0  0
  -18.6410    4.5500  140.5440 N   0  0  0  0  0  0  0  0  0  0  0  0
  -18.6720    3.2150  140.6600 C   0  0  0  0  0  0  0  0  0  0  0  0
  -20.9500   -2.2730  135.5630 O   0  0  0  0  0  0  0  0  0  0  0  0
  -20.5330   -3.0130  136.8900 P   0  0  1  0  0  0  0  0  0  0  0  0
  -20.1190   -2.0510  137.9800 O   0  0  0  0  0  0  0  0  0  0  0  0
  -21.8940   -3.9340  137.2460 O   0  0  0  0  0  0  0  0  0  0  0  0
  -19.3130   -3.9470  136.4620 O   0  0  0  0  0  0  0  0  0  0  0  0
  -17.9820   -3.4480  136.6150 C   0  0  0  0  0  0  0  0  0  0  0  0
  -17.2700   -3.4210  135.2690 C   0  0  1  0  0  0  0  0  0  0  0  0
  -18.1520   -2.9390  134.2430 O   0  0  0  0  0  0  0  0  0  0  0  0
  -16.0790   -2.4770  135.3260 C   0  0  1  0  0  0  0  0  0  0  0  0
  -14.8480   -3.1780  135.5540 O   0  0  0  0  0  0  0  0  0  0  0  0
  -16.0800   -1.7680  133.9810 C   0  0  1  0  0  0  0  0  0  0  0  0
  -15.0170   -2.2700  133.1440 O   0  0  0  0  0  0  0  0  0  0  0  0
  -17.4750   -2.0130  133.3840 C   0  0  0  0  0  0  0  0  0  0  0  0
  -14.7890   -0.0920  139.5710 P   0  0  0  0  0  0  0  0  0  0  0  0
  -15.2290   -0.2930  141.0270 O   0  0  0  0  0  0  0  0  0  0  0  0
  -13.0970   -0.0270  139.5380 O   0  0  0  0  0  0  0  0  0  0  0  0
  -15.2390   -1.3850  138.5590 O   0  0  0  0  0  0  0  0  0  0  0  0
  1  3  2  6  0  0  0
  1  4  1  0  0  0  0
  1 23  1  0  0  0  0
  2  1  1  0  0  0  0
  5  4  1  0  0  0  0
  6  7  1  0  0  0  0
  6  5  1  6  0  0  0
  8  9  1  6  0  0  0
  8  6  1  0  0  0  0
 10 11  1  6  0  0  0
 10  8  1  0  0  0  0
 10 12  1  0  0  0  0
 12 13  1  1  0  0  0
 12  7  1  0  0  0  0
 13 14  1  0  0  0  0
 14 15  2  0  0  0  0
 16 15  1  0  0  0  0
 17 16  1  0  0  0  0
 17 18  1  0  0  0  0
 19 17  2  0  0  0  0
 20 21  2  0  0  0  0
 20 19  1  0  0  0  0
 21 22  1  0  0  0  0
 22 13  1  0  0  0  0
 22 16  2  0  0  0  0
 24 23  1  6  0  0  0
 24 27  1  0  0  0  0
 24 25  1  0  0  0  0
 26 24  2  0  0  0  0
 28 27  1  0  0  0  0
 29 28  1  6  0  0  0
 29 31  1  0  0  0  0
 30 29  1  0  0  0  0
 31 32  1  1  0  0  0
 33 31  1  0  0  0  0
 33 34  1  1  0  0  0
 35 30  1  0  0  0  0
 35 33  1  0  0  0  0
 36 11  1  0  0  0  0
 36 38  1  0  0  0  0
 37 36  1  0  0  0  0
 39 36  2  0  0  0  0
M  END
$$$$
/ddnB/work/jaydy/dat/BioLip/ligand_nr/h6/1h6v_NDP_B_1.pdb
 OpenBabel01311601043D

 39 42  0  0  1  0  0  0  0  0999 V2000
  -16.4340    1.6210  136.0190 P   0  0  1  0  0  0  0  0  0  0  0  0
  -16.8670    1.0860  134.6840 O   0  0  0  0  0  0  0  0  0  0  0  0
  -17.7260    1.9570  137.0610 O   0  0  0  0  0  0  0  0  0  0  0  0
  -15.5450    0.5130  136.7840 O   0  0  0  0  0  0  0  0  0  0  0  0
  -16.3380   -0.5570  137.2810 C   0  0  0  0  0  0  0  0  0  0  0  0
  -16.1020   -1.9540  136.7090 C   0  0  1  0  0  0  0  0  0  0  0  0
  -17.2370   -2.7100  137.1190 O   0  0  0  0  0  0  0  0  0  0  0  0
  -16.0700   -2.2050  135.2130 C   0  0  1  0  0  0  0  0  0  0  0  0
  -15.1390   -3.3050  135.0240 O   0  0  0  0  0  0  0  0  0  0  0  0
  -17.5460   -2.5190  134.8510 C   0  0  1  0  0  0  0  0  0  0  0  0
  -17.8730   -3.3470  133.7180 O   0  0  0  0  0  0  0  0  0  0  0  0
  -18.0630   -3.1760  136.0830 C   0  0  2  0  0  0  0  0  0  0  0  0
  -19.4000   -2.6370  136.3770 N   0  0  0  0  0  0  0  0  0  0  0  0
  -19.8560   -1.3830  136.1340 C   0  0  0  0  0  0  0  0  0  0  0  0
  -21.1470   -1.2380  136.5210 N   0  0  0  0  0  0  0  0  0  0  0  0
  -21.5410   -2.4210  137.0060 C   0  0  0  0  0  0  0  0  0  0  0  0
  -22.8500   -2.9670  137.5480 C   0  0  0  0  0  0  0  0  0  0  0  0
  -24.0310   -2.1950  137.6600 N   0  0  0  0  0  0  0  0  0  0  0  0
  -22.7940   -4.3090  137.9030 N   0  0  0  0  0  0  0  0  0  0  0  0
  -21.6090   -5.0610  137.7660 C   0  0  0  0  0  0  0  0  0  0  0  0
  -20.3930   -4.6170  137.3360 N   0  0  0  0  0  0  0  0  0  0  0  0
  -20.3630   -3.3420  136.9240 C   0  0  0  0  0  0  0  0  0  0  0  0
  -15.6590    3.0190  135.9110 O   0  0  0  0  0  0  0  0  0  0  0  0
  -14.7140    3.4810  137.0840 P   0  0  1  0  0  0  0  0  0  0  0  0
  -13.6770    2.4390  137.4320 O   0  0  0  0  0  0  0  0  0  0  0  0
  -14.0870    4.9300  136.5080 O   0  0  0  0  0  0  0  0  0  0  0  0
  -15.6970    3.7380  138.3140 O   0  0  0  0  0  0  0  0  0  0  0  0
  -15.2890    3.3150  139.6170 C   0  0  0  0  0  0  0  0  0  0  0  0
  -15.9400    1.9830  139.9670 C   0  0  1  0  0  0  0  0  0  0  0  0
  -14.9840    1.0990  140.5710 O   0  0  0  0  0  0  0  0  0  0  0  0
  -17.0600    2.1970  140.9740 C   0  0  1  0  0  0  0  0  0  0  0  0
  -18.3470    2.2480  140.3420 O   0  0  0  0  0  0  0  0  0  0  0  0
  -16.9510    1.0230  141.9320 C   0  0  1  0  0  0  0  0  0  0  0  0
  -18.0120    0.0750  141.6940 O   0  0  0  0  0  0  0  0  0  0  0  0
  -15.5540    0.4250  141.7000 C   0  0  0  0  0  0  0  0  0  0  0  0
  -18.0620   -2.5530  132.3270 P   0  0  0  0  0  0  0  0  0  0  0  0
  -17.4590   -1.1420  132.3780 O   0  0  0  0  0  0  0  0  0  0  0  0
  -19.7360   -2.4000  132.1190 O   0  0  0  0  0  0  0  0  0  0  0  0
  -17.4960   -3.4670  131.0070 O   0  0  0  0  0  0  0  0  0  0  0  0
  1  3  2  6  0  0  0
  1  4  1  0  0  0  0
  1 23  1  0  0  0  0
  2  1  1  0  0  0  0
  5  4  1  0  0  0  0
  6  7  1  0  0  0  0
  6  5  1  6  0  0  0
  8  9  1  6  0  0  0
  8  6  1  0  0  0  0
 10 11  1  6  0  0  0
 10  8  1  0  0  0  0
 10 12  1  0  0  0  0
 12 13  1  1  0  0  0
 12  7  1  0  0  0  0
 13 14  1  0  0  0  0
 14 15  2  0  0  0  0
 16 15  1  0  0  0  0
 17 16  1  0  0  0  0
 17 18  1  0  0  0  0
 19 17  2  0  0  0  0
 20 21  2  0  0  0  0
 20 19  1  0  0  0  0
 21 22  1  0  0  0  0
 22 13  1  0  0  0  0
 22 16  2  0  0  0  0
 24 23  1  6  0  0  0
 24 27  1  0  0  0  0
 24 25  1  0  0  0  0
 26 24  2  0  0  0  0
 28 27  1  0  0  0  0
 29 28  1  6  0  0  0
 29 31  1  0  0  0  0
 30 29  1  0  0  0  0
 31 32  1  1  0  0  0
 33 31  1  0  0  0  0
 33 34  1  1  0  0  0
 35 30  1  0  0  0  0
 35 33  1  0  0  0  0
 36 11  1  0  0  0  0
 36 38  1  0  0  0  0
 37 36  1  0  0  0  0
 39 36  2  0  0  0  0
M  END
$$$$
/ddnB/work/jaydy/dat/BioLip/ligand_nr/h6/1h6v_NDP_B_1.pdb
 OpenBabel01311601043D

 39 42  0  0  1  0  0  0  0  0999 V2000
  -21.6190    0.1490  139.0470 P   0  0  1  0  0  0  0  0  0  0  0  0
  -21.4040    1.5750  138.6270 O   0  0  0  0  0  0  0  0  0  0  0  0
  -22.9590   -0.5770  138.3090 O   0  0  0  0  0  0  0  0  0  0  0  0
  -20.3510   -0.7430  138.6030 O   0  0  0  0  0  0  0  0  0  0  0  0
  -20.5960   -1.4550  137.3970 C   0  0  0  0  0  0  0  0  0  0  0  0
  -20.1850   -0.8010  136.0780 C   0  0  1  0  0  0  0  0  0  0  0  0
  -19.0850    0.0380  136.4170 O   0  0  0  0  0  0  0  0  0  0  0  0
  -19.6270   -1.6160  134.9270 C   0  0  1  0  0  0  0  0  0  0  0  0
  -20.0560   -0.9280  133.7210 O   0  0  0  0  0  0  0  0  0  0  0  0
  -18.0960   -1.6210  135.1750 C   0  0  1  0  0  0  0  0  0  0  0  0
  -17.1660   -1.7650  134.0830 O   0  0  0  0  0  0  0  0  0  0  0  0
  -17.8560   -0.3080  135.8330 C   0  0  2  0  0  0  0  0  0  0  0  0
  -16.9310   -0.5090  136.9600 N   0  0  0  0  0  0  0  0  0  0  0  0
  -16.8010   -1.6150  137.7340 C   0  0  0  0  0  0  0  0  0  0  0  0
  -15.8370   -1.4550  138.6740 N   0  0  0  0  0  0  0  0  0  0  0  0
  -15.3200   -0.2350  138.4940 C   0  0  0  0  0  0  0  0  0  0  0  0
  -14.1950    0.5510  139.1450 C   0  0  0  0  0  0  0  0  0  0  0  0
  -13.4110    0.0530  140.2130 N   0  0  0  0  0  0  0  0  0  0  0  0
  -13.9840    1.8020  138.5790 N   0  0  0  0  0  0  0  0  0  0  0  0
  -14.7700    2.2690  137.5050 C   0  0  0  0  0  0  0  0  0  0  0  0
  -15.8220    1.6350  136.9130 N   0  0  0  0  0  0  0  0  0  0  0  0
  -16.0700    0.3960  137.3620 C   0  0  0  0  0  0  0  0  0  0  0  0
  -21.9190   -0.0020  140.6140 O   0  0  0  0  0  0  0  0  0  0  0  0
  -22.7250    1.1210  141.3680 P   0  0  1  0  0  0  0  0  0  0  0  0
  -23.8370    1.6980  140.5240 O   0  0  0  0  0  0  0  0  0  0  0  0
  -23.2370    0.3390  142.7650 O   0  0  0  0  0  0  0  0  0  0  0  0
  -21.6350    2.2350  141.7100 O   0  0  0  0  0  0  0  0  0  0  0  0
  -20.7190    1.9920  142.7810 C   0  0  0  0  0  0  0  0  0  0  0  0
  -19.2850    2.0750  142.2770 C   0  0  1  0  0  0  0  0  0  0  0  0
  -18.8000    0.7710  141.9200 O   0  0  0  0  0  0  0  0  0  0  0  0
  -19.2190    2.9410  141.0270 C   0  0  1  0  0  0  0  0  0  0  0  0
  -18.8090    4.2830  141.3250 O   0  0  0  0  0  0  0  0  0  0  0  0
  -18.2240    2.2380  140.1190 C   0  0  1  0  0  0  0  0  0  0  0  0
  -16.9740    2.9580  140.0860 O   0  0  0  0  0  0  0  0  0  0  0  0
  -18.0790    0.8160  140.6830 C   0  0  0  0  0  0  0  0  0  0  0  0
  -16.5000   -3.2270  133.9440 P   0  0  0  0  0  0  0  0  0  0  0  0
  -17.4420   -4.3410  134.4210 O   0  0  0  0  0  0  0  0  0  0  0  0
  -15.1510   -3.2070  134.9670 O   0  0  0  0  0  0  0  0  0  0  0  0
  -15.9060   -3.4920  132.3710 O   0  0  0  0  0  0  0  0  0  0  0  0
  1  3  2  6  0  0  0
  1  4  1  0  0  0  0
  1 23  1  0  0  0  0
  2  1  1  0  0  0  0
  5  4  1  0  0  0  0
  6  7  1  0  0  0  0
  6  5  1  6  0  0  0
  8  9  1  6  0  0  0
  8  6  1  0  0  0  0
 10 11  1  6  0  0  0
 10  8  1  0  0  0  0
 10 12  1  0  0  0  0
 12 13  1  1  0  0  0
 12  7  1  0  0  0  0
 13 14  1  0  0  0  0
 14 15  2  0  0  0  0
 16 15  1  0  0  0  0
 17 16  1  0  0  0  0
 17 18  1  0  0  0  0
 19 17  2  0  0  0  0
 20 21  2  0  0  0  0
 20 19  1  0  0  0  0
 21 22  1  0  0  0  0
 22 13  1  0  0  0  0
 22 16  2  0  0  0  0
 24 23  1  6  0  0  0
 24 27  1  0  0  0  0
 24 25  1  0  0  0  0
 26 24  2  0  0  0  0
 28 27  1  0  0  0  0
 29 28  1  6  0  0  0
 29 31  1  0  0  0  0
 30 29  1  0  0  0  0
 31 32  1  1  0  0  0
 33 31  1  0  0  0  0
 33 34  1  1  0  0  0
 35 30  1  0  0  0  0
 35 33  1  0  0  0  0
 36 11  1  0  0  0  0
 36 38  1  0  0  0  0
 37 36  1  0  0  0  0
 39 36  2  0  0  0  0
M  END
$$$$
