/ddnB/work/jaydy/dat/BioLip/ligand_nr/h6/1h6v_NDP_B_1.pdb
 OpenBabel01311601043D

 39 42  0  0  1  0  0  0  0  0999 V2000
  -17.6560   -0.1830  137.6210 P   0  0  1  0  0  0  0  0  0  0  0  0
  -17.4100    1.1840  137.0510 O   0  0  0  0  0  0  0  0  0  0  0  0
  -18.6800   -1.1370  136.6670 O   0  0  0  0  0  0  0  0  0  0  0  0
  -16.2650   -0.9960  137.6990 O   0  0  0  0  0  0  0  0  0  0  0  0
  -16.4550   -2.3950  137.5370 C   0  0  0  0  0  0  0  0  0  0  0  0
  -15.9540   -3.0450  136.2470 C   0  0  1  0  0  0  0  0  0  0  0  0
  -16.4770   -4.3690  136.2820 O   0  0  0  0  0  0  0  0  0  0  0  0
  -16.4040   -2.5550  134.8840 C   0  0  1  0  0  0  0  0  0  0  0  0
  -15.2790   -2.7930  133.9950 O   0  0  0  0  0  0  0  0  0  0  0  0
  -17.6740   -3.3930  134.5820 C   0  0  1  0  0  0  0  0  0  0  0  0
  -18.0760   -3.6710  133.2260 O   0  0  0  0  0  0  0  0  0  0  0  0
  -17.3980   -4.6840  135.2690 C   0  0  2  0  0  0  0  0  0  0  0  0
  -18.6180   -5.1130  135.9710 N   0  0  0  0  0  0  0  0  0  0  0  0
  -19.3390   -4.4090  136.8790 C   0  0  0  0  0  0  0  0  0  0  0  0
  -20.4160   -5.1090  137.3120 N   0  0  0  0  0  0  0  0  0  0  0  0
  -20.4050   -6.2780  136.6610 C   0  0  0  0  0  0  0  0  0  0  0  0
  -21.3260   -7.4850  136.6240 C   0  0  0  0  0  0  0  0  0  0  0  0
  -22.5060   -7.5900  137.3990 N   0  0  0  0  0  0  0  0  0  0  0  0
  -20.9190   -8.4740  135.7380 N   0  0  0  0  0  0  0  0  0  0  0  0
  -19.7470   -8.3380  134.9660 C   0  0  0  0  0  0  0  0  0  0  0  0
  -18.8550   -7.3060  134.9910 N   0  0  0  0  0  0  0  0  0  0  0  0
  -19.1910   -6.2790  135.7840 C   0  0  0  0  0  0  0  0  0  0  0  0
  -18.3900   -0.1440  139.0450 O   0  0  0  0  0  0  0  0  0  0  0  0
  -17.6980    0.5780  140.2620 P   0  0  1  0  0  0  0  0  0  0  0  0
  -17.8290   -0.2060  141.5470 O   0  0  0  0  0  0  0  0  0  0  0  0
  -16.1190    0.7850  139.7240 O   0  0  0  0  0  0  0  0  0  0  0  0
  -18.4470    1.9820  140.3740 O   0  0  0  0  0  0  0  0  0  0  0  0
  -18.3550    2.8970  139.2790 C   0  0  0  0  0  0  0  0  0  0  0  0
  -17.2600    3.9230  139.5400 C   0  0  1  0  0  0  0  0  0  0  0  0
  -16.4360    4.0870  138.3760 O   0  0  0  0  0  0  0  0  0  0  0  0
  -17.8780    5.2780  139.8540 C   0  0  1  0  0  0  0  0  0  0  0  0
  -17.9430    5.5240  141.2660 O   0  0  0  0  0  0  0  0  0  0  0  0
  -16.9840    6.2850  139.1490 C   0  0  1  0  0  0  0  0  0  0  0  0
  -16.1630    6.9880  140.1050 O   0  0  0  0  0  0  0  0  0  0  0  0
  -16.1590    5.4730  138.1380 C   0  0  0  0  0  0  0  0  0  0  0  0
  -19.0080   -2.5440  132.5470 P   0  0  0  0  0  0  0  0  0  0  0  0
  -18.2080   -1.2990  132.1390 O   0  0  0  0  0  0  0  0  0  0  0  0
  -20.1110   -2.0880  133.7480 O   0  0  0  0  0  0  0  0  0  0  0  0
  -19.9290   -3.1870  131.2680 O   0  0  0  0  0  0  0  0  0  0  0  0
  1  3  2  6  0  0  0
  1  4  1  0  0  0  0
  1 23  1  0  0  0  0
  2  1  1  0  0  0  0
  5  4  1  0  0  0  0
  6  7  1  0  0  0  0
  6  5  1  6  0  0  0
  8  9  1  6  0  0  0
  8  6  1  0  0  0  0
 10 11  1  6  0  0  0
 10  8  1  0  0  0  0
 10 12  1  0  0  0  0
 12 13  1  1  0  0  0
 12  7  1  0  0  0  0
 13 14  1  0  0  0  0
 14 15  2  0  0  0  0
 16 15  1  0  0  0  0
 17 16  1  0  0  0  0
 17 18  1  0  0  0  0
 19 17  2  0  0  0  0
 20 21  2  0  0  0  0
 20 19  1  0  0  0  0
 21 22  1  0  0  0  0
 22 13  1  0  0  0  0
 22 16  2  0  0  0  0
 24 23  1  6  0  0  0
 24 27  1  0  0  0  0
 24 25  1  0  0  0  0
 26 24  2  0  0  0  0
 28 27  1  0  0  0  0
 29 28  1  6  0  0  0
 29 31  1  0  0  0  0
 30 29  1  0  0  0  0
 31 32  1  1  0  0  0
 33 31  1  0  0  0  0
 33 34  1  1  0  0  0
 35 30  1  0  0  0  0
 35 33  1  0  0  0  0
 36 11  1  0  0  0  0
 36 38  1  0  0  0  0
 37 36  1  0  0  0  0
 39 36  2  0  0  0  0
M  END
$$$$
