MODEL 1
REMARK VINA RESULT:      -7.6      0.000      0.000
REMARK  Name = /ddnB/work/jaydy/dat/BioLip/ligand_nr/h6/1h6v_NDP_B_1.pdb
REMARK                            x       y       z     vdW  Elec       q    Type
REMARK                         _______ _______ _______ _____ _____    ______ ____
ROOT
ATOM      1  C   LIG    1      -16.049  -1.917 136.682  0.00  0.00    +0.180 C 
ATOM      2  O   LIG    1      -17.198  -2.645 137.102  0.00  0.00    -0.331 OA
ATOM      3  C   LIG    1      -18.042  -3.093 136.072  0.00  0.00    +0.238 C 
ATOM      4  C   LIG    1      -17.517  -2.451 134.836  0.00  0.00    +0.208 C 
ATOM      5  C   LIG    1      -16.033  -2.171 135.187  0.00  0.00    +0.213 C 
ATOM      6  O   LIG    1      -15.128  -3.292 134.994  0.00  0.00    -0.218 OA
ENDROOT
BRANCH   3   7
ATOM      7  N   LIG    1      -19.364  -2.522 136.374  0.00  0.00    -0.269 N 
ATOM      8  C   LIG    1      -19.785  -1.252 136.151  0.00  0.00    +0.182 A 
ATOM      9  N   LIG    1      -21.072  -1.078 136.540  0.00  0.00    -0.219 NA
ATOM     10  C   LIG    1      -21.499  -2.258 137.004  0.00  0.00    +0.152 A 
ATOM     11  C   LIG    1      -22.824  -2.777 137.535  0.00  0.00    +0.192 A 
ATOM     12  N   LIG    1      -23.983  -1.974 137.660  0.00  0.00    -0.105 NA
ATOM     13  N   LIG    1      -22.805  -4.125 137.867  0.00  0.00    -0.204 NA
ATOM     14  C   LIG    1      -21.641  -4.907 137.719  0.00  0.00    +0.202 A 
ATOM     15  N   LIG    1      -20.413  -4.490 137.298  0.00  0.00    -0.205 NA
ATOM     16  C   LIG    1      -20.346  -3.209 136.907  0.00  0.00    +0.169 A 
ENDBRANCH   3   7
BRANCH   1  17
ATOM     17  C   LIG    1      -16.248  -0.513 137.254  0.00  0.00    +0.181 C 
BRANCH  17  18
ATOM     18  O   LIG    1      -15.092   0.252 137.567  0.00  0.00    -0.311 OA
BRANCH  18  19
ATOM     19  P   LIG    1      -15.281   1.812 137.202  0.00  0.00    +0.219 P 
ATOM     20  O   LIG    1      -13.937   2.450 137.003  0.00  0.00    -0.437 OA
ATOM     21  O   LIG    1      -16.249   1.833 135.812  0.00  0.00    -0.517 OA
BRANCH  19  22
ATOM     22  O   LIG    1      -16.175   2.564 138.299  0.00  0.00    -0.270 OA
BRANCH  22  23
ATOM     23  P   LIG    1      -15.569   2.881 139.718  0.00  0.00    +0.219 P 
ATOM     24  O   LIG    1      -14.304   2.101 139.991  0.00  0.00    -0.437 OA
ATOM     25  O   LIG    1      -15.369   4.550 139.674  0.00  0.00    -0.517 OA
BRANCH  23  26
ATOM     26  O   LIG    1      -16.719   2.475 140.745  0.00  0.00    -0.311 OA
BRANCH  26  27
ATOM     27  C   LIG    1      -16.839   1.105 141.134  0.00  0.00    +0.181 C 
BRANCH  27  28
ATOM     28  C   LIG    1      -18.307   0.702 141.200  0.00  0.00    +0.178 C 
ATOM     29  C   LIG    1      -18.814   0.346 139.809  0.00  0.00    +0.214 C 
ATOM     30  O   LIG    1      -18.810  -1.070 139.582  0.00  0.00    -0.218 OA
ATOM     31  C   LIG    1      -20.220   0.921 139.751  0.00  0.00    +0.214 C 
ATOM     32  O   LIG    1      -21.200  -0.134 139.842  0.00  0.00    -0.218 OA
ATOM     33  C   LIG    1      -20.310   1.920 140.915  0.00  0.00    +0.178 C 
ATOM     34  O   LIG    1      -19.107   1.791 141.683  0.00  0.00    -0.348 OA
ENDBRANCH  27  28
ENDBRANCH  26  27
ENDBRANCH  23  26
ENDBRANCH  22  23
ENDBRANCH  19  22
ENDBRANCH  18  19
ENDBRANCH  17  18
ENDBRANCH   1  17
BRANCH   4  35
ATOM     35  O   LIG    1      -17.872  -3.272 133.706  0.00  0.00    -0.265 OA
BRANCH  35  36
ATOM     36  P   LIG    1      -18.152  -2.465 132.338  0.00  0.00    +0.533 P 
ATOM     37  O   LIG    1      -17.559  -3.457 131.100  0.00  0.00    -0.115 OA
ATOM     38  O   LIG    1      -19.650  -2.243 132.093  0.00  0.00    -0.115 OA
ATOM     39  O   LIG    1      -17.249  -1.023 132.271  0.00  0.00    -0.222 OA
ENDBRANCH  35  36
ENDBRANCH   4  35
TORSDOF 11
ENDMDL
MODEL 2
REMARK VINA RESULT:      -7.6      1.251      2.093
REMARK  Name = /ddnB/work/jaydy/dat/BioLip/ligand_nr/h6/1h6v_NDP_B_1.pdb
REMARK                            x       y       z     vdW  Elec       q    Type
REMARK                         _______ _______ _______ _____ _____    ______ ____
ROOT
ATOM      1  C   LIG    1      -16.015  -2.185 136.739  0.00  0.00    +0.180 C 
ATOM      2  O   LIG    1      -17.208  -2.866 137.114  0.00  0.00    -0.331 OA
ATOM      3  C   LIG    1      -18.059  -3.224 136.055  0.00  0.00    +0.238 C 
ATOM      4  C   LIG    1      -17.484  -2.559 134.854  0.00  0.00    +0.208 C 
ATOM      5  C   LIG    1      -15.991  -2.376 135.235  0.00  0.00    +0.213 C 
ATOM      6  O   LIG    1      -15.146  -3.535 135.004  0.00  0.00    -0.218 OA
ENDROOT
BRANCH   3   7
ATOM      7  N   LIG    1      -19.353  -2.594 136.366  0.00  0.00    -0.269 N 
ATOM      8  C   LIG    1      -19.719  -1.307 136.146  0.00  0.00    +0.182 A 
ATOM      9  N   LIG    1      -20.994  -1.076 136.543  0.00  0.00    -0.219 NA
ATOM     10  C   LIG    1      -21.470  -2.236 137.011  0.00  0.00    +0.152 A 
ATOM     11  C   LIG    1      -22.813  -2.696 137.550  0.00  0.00    +0.192 A 
ATOM     12  N   LIG    1      -23.934  -1.842 137.683  0.00  0.00    -0.105 NA
ATOM     13  N   LIG    1      -22.852  -4.044 137.883  0.00  0.00    -0.204 NA
ATOM     14  C   LIG    1      -21.725  -4.876 137.727  0.00  0.00    +0.202 A 
ATOM     15  N   LIG    1      -20.482  -4.514 137.297  0.00  0.00    -0.205 NA
ATOM     16  C   LIG    1      -20.361  -3.237 136.906  0.00  0.00    +0.169 A 
ENDBRANCH   3   7
BRANCH   1  17
ATOM     17  C   LIG    1      -16.146  -0.797 137.368  0.00  0.00    +0.181 C 
BRANCH  17  18
ATOM     18  O   LIG    1      -16.287  -0.713 138.780  0.00  0.00    -0.311 OA
BRANCH  18  19
ATOM     19  P   LIG    1      -14.873  -0.464 139.516  0.00  0.00    +0.219 P 
ATOM     20  O   LIG    1      -15.111  -0.057 140.941  0.00  0.00    -0.437 OA
ATOM     21  O   LIG    1      -14.026  -1.922 139.364  0.00  0.00    -0.517 OA
BRANCH  19  22
ATOM     22  O   LIG    1      -13.971   0.586 138.708  0.00  0.00    -0.270 OA
BRANCH  22  23
ATOM     23  P   LIG    1      -14.099   2.126 139.014  0.00  0.00    +0.219 P 
ATOM     24  O   LIG    1      -13.548   2.490 140.373  0.00  0.00    -0.437 OA
ATOM     25  O   LIG    1      -13.295   2.832 137.718  0.00  0.00    -0.517 OA
BRANCH  23  26
ATOM     26  O   LIG    1      -15.665   2.421 138.938  0.00  0.00    -0.311 OA
BRANCH  26  27
ATOM     27  C   LIG    1      -16.291   3.090 140.037  0.00  0.00    +0.181 C 
BRANCH  27  28
ATOM     28  C   LIG    1      -17.788   2.813 140.039  0.00  0.00    +0.178 C 
ATOM     29  C   LIG    1      -18.090   1.575 140.871  0.00  0.00    +0.214 C 
ATOM     30  O   LIG    1      -18.518   1.911 142.198  0.00  0.00    -0.218 OA
ATOM     31  C   LIG    1      -19.176   0.844 140.099  0.00  0.00    +0.214 C 
ATOM     32  O   LIG    1      -20.452   0.995 140.757  0.00  0.00    -0.218 OA
ATOM     33  C   LIG    1      -19.160   1.447 138.685  0.00  0.00    +0.178 C 
ATOM     34  O   LIG    1      -18.255   2.557 138.705  0.00  0.00    -0.348 OA
ENDBRANCH  27  28
ENDBRANCH  26  27
ENDBRANCH  23  26
ENDBRANCH  22  23
ENDBRANCH  19  22
ENDBRANCH  18  19
ENDBRANCH  17  18
ENDBRANCH   1  17
BRANCH   4  35
ATOM     35  O   LIG    1      -17.866  -3.311 133.686  0.00  0.00    -0.265 OA
BRANCH  35  36
ATOM     36  P   LIG    1      -18.038  -2.440 132.340  0.00  0.00    +0.533 P 
ATOM     37  O   LIG    1      -19.701  -2.155 132.198  0.00  0.00    -0.115 OA
ATOM     38  O   LIG    1      -17.330  -1.081 132.436  0.00  0.00    -0.115 OA
ATOM     39  O   LIG    1      -17.583  -3.328 130.962  0.00  0.00    -0.222 OA
ENDBRANCH  35  36
ENDBRANCH   4  35
TORSDOF 11
ENDMDL
MODEL 3
REMARK VINA RESULT:      -7.5      3.458      4.759
REMARK  Name = /ddnB/work/jaydy/dat/BioLip/ligand_nr/h6/1h6v_NDP_B_1.pdb
REMARK                            x       y       z     vdW  Elec       q    Type
REMARK                         _______ _______ _______ _____ _____    ______ ____
ROOT
ATOM      1  C   LIG    1      -16.508   0.858 136.916  0.00  0.00    +0.180 C 
ATOM      2  O   LIG    1      -16.029   0.443 135.641  0.00  0.00    -0.331 OA
ATOM      3  C   LIG    1      -17.007  -0.022 134.747  0.00  0.00    +0.238 C 
ATOM      4  C   LIG    1      -18.256  -0.109 135.551  0.00  0.00    +0.208 C 
ATOM      5  C   LIG    1      -18.008   0.907 136.697  0.00  0.00    +0.213 C 
ATOM      6  O   LIG    1      -18.308   2.292 136.372  0.00  0.00    -0.218 OA
ENDROOT
BRANCH   3   7
ATOM      7  N   LIG    1      -16.587  -1.385 134.383  0.00  0.00    -0.269 N 
ATOM      8  C   LIG    1      -15.863  -2.253 135.133  0.00  0.00    +0.182 A 
ATOM      9  N   LIG    1      -15.673  -3.430 134.488  0.00  0.00    -0.219 NA
ATOM     10  C   LIG    1      -16.299  -3.332 133.309  0.00  0.00    +0.152 A 
ATOM     11  C   LIG    1      -16.530  -4.277 132.144  0.00  0.00    +0.192 A 
ATOM     12  N   LIG    1      -16.032  -5.602 132.103  0.00  0.00    -0.105 NA
ATOM     13  N   LIG    1      -17.300  -3.733 131.124  0.00  0.00    -0.204 NA
ATOM     14  C   LIG    1      -17.797  -2.416 131.196  0.00  0.00    +0.202 A 
ATOM     15  N   LIG    1      -17.583  -1.504 132.188  0.00  0.00    -0.205 NA
ATOM     16  C   LIG    1      -16.889  -1.957 133.241  0.00  0.00    +0.169 A 
ENDBRANCH   3   7
BRANCH   1  17
ATOM     17  C   LIG    1      -15.876  -0.120 137.907  0.00  0.00    +0.181 C 
BRANCH  17  18
ATOM     18  O   LIG    1      -14.662   0.260 138.539  0.00  0.00    -0.311 OA
BRANCH  18  19
ATOM     19  P   LIG    1      -14.880   0.637 140.093  0.00  0.00    +0.219 P 
ATOM     20  O   LIG    1      -14.780  -0.605 140.931  0.00  0.00    -0.437 OA
ATOM     21  O   LIG    1      -13.689   1.788 140.447  0.00  0.00    -0.517 OA
BRANCH  19  22
ATOM     22  O   LIG    1      -16.254   1.431 140.313  0.00  0.00    -0.270 OA
BRANCH  22  23
ATOM     23  P   LIG    1      -17.303   0.903 141.362  0.00  0.00    +0.219 P 
ATOM     24  O   LIG    1      -17.948  -0.394 140.930  0.00  0.00    -0.437 OA
ATOM     25  O   LIG    1      -16.398   0.799 142.775  0.00  0.00    -0.517 OA
BRANCH  23  26
ATOM     26  O   LIG    1      -18.387   2.069 141.468  0.00  0.00    -0.311 OA
BRANCH  26  27
ATOM     27  C   LIG    1      -19.090   2.241 142.702  0.00  0.00    +0.181 C 
BRANCH  27  28
ATOM     28  C   LIG    1      -20.588   2.342 142.445  0.00  0.00    +0.178 C 
ATOM     29  C   LIG    1      -20.891   2.017 140.989  0.00  0.00    +0.214 C 
ATOM     30  O   LIG    1      -21.320   0.658 140.821  0.00  0.00    -0.218 OA
ATOM     31  C   LIG    1      -21.977   3.002 140.590  0.00  0.00    +0.214 C 
ATOM     32  O   LIG    1      -23.253   2.336 140.492  0.00  0.00    -0.218 OA
ATOM     33  C   LIG    1      -21.958   4.100 141.665  0.00  0.00    +0.178 C 
ATOM     34  O   LIG    1      -21.052   3.677 142.692  0.00  0.00    -0.348 OA
ENDBRANCH  27  28
ENDBRANCH  26  27
ENDBRANCH  23  26
ENDBRANCH  22  23
ENDBRANCH  19  22
ENDBRANCH  18  19
ENDBRANCH  17  18
ENDBRANCH   1  17
BRANCH   4  35
ATOM     35  O   LIG    1      -19.384   0.032 134.665  0.00  0.00    -0.265 OA
BRANCH  35  36
ATOM     36  P   LIG    1      -20.456  -1.171 134.730  0.00  0.00    +0.533 P 
ATOM     37  O   LIG    1      -19.650  -2.452 135.491  0.00  0.00    -0.115 OA
ATOM     38  O   LIG    1      -21.682  -0.810 135.580  0.00  0.00    -0.115 OA
ATOM     39  O   LIG    1      -20.869  -1.721 133.173  0.00  0.00    -0.222 OA
ENDBRANCH  35  36
ENDBRANCH   4  35
TORSDOF 11
ENDMDL
MODEL 4
REMARK VINA RESULT:      -7.5      3.248      6.930
REMARK  Name = /ddnB/work/jaydy/dat/BioLip/ligand_nr/h6/1h6v_NDP_B_1.pdb
REMARK                            x       y       z     vdW  Elec       q    Type
REMARK                         _______ _______ _______ _____ _____    ______ ____
ROOT
ATOM      1  C   LIG    1      -15.488   1.869 137.269  0.00  0.00    +0.180 C 
ATOM      2  O   LIG    1      -16.163   2.509 138.347  0.00  0.00    -0.331 OA
ATOM      3  C   LIG    1      -15.641   2.255 139.626  0.00  0.00    +0.238 C 
ATOM      4  C   LIG    1      -14.624   1.188 139.423  0.00  0.00    +0.208 C 
ATOM      5  C   LIG    1      -14.223   1.362 137.935  0.00  0.00    +0.213 C 
ATOM      6  O   LIG    1      -13.216   2.378 137.679  0.00  0.00    -0.218 OA
ENDROOT
BRANCH   3   7
ATOM      7  N   LIG    1      -16.761   1.695 140.399  0.00  0.00    -0.269 N 
ATOM      8  C   LIG    1      -16.934   0.407 140.789  0.00  0.00    +0.182 A 
ATOM      9  N   LIG    1      -18.075   0.250 141.503  0.00  0.00    -0.219 NA
ATOM     10  C   LIG    1      -18.643   1.458 141.595  0.00  0.00    +0.152 A 
ATOM     11  C   LIG    1      -19.881   2.003 142.285  0.00  0.00    +0.192 A 
ATOM     12  N   LIG    1      -20.773   1.200 143.036  0.00  0.00    -0.105 NA
ATOM     13  N   LIG    1      -20.050   3.373 142.134  0.00  0.00    -0.204 NA
ATOM     14  C   LIG    1      -19.139   4.153 141.393  0.00  0.00    +0.202 A 
ATOM     15  N   LIG    1      -18.041   3.717 140.710  0.00  0.00    -0.205 NA
ATOM     16  C   LIG    1      -17.770   2.411 140.839  0.00  0.00    +0.169 A 
ENDBRANCH   3   7
BRANCH   1  17
ATOM     17  C   LIG    1      -16.522   0.909 136.679  0.00  0.00    +0.181 C 
BRANCH  17  18
ATOM     18  O   LIG    1      -16.087  -0.385 136.286  0.00  0.00    -0.311 OA
BRANCH  18  19
ATOM     19  P   LIG    1      -16.271  -0.632 134.703  0.00  0.00    +0.219 P 
ATOM     20  O   LIG    1      -17.713  -0.448 134.328  0.00  0.00    -0.437 OA
ATOM     21  O   LIG    1      -15.233   0.476 133.952  0.00  0.00    -0.517 OA
BRANCH  19  22
ATOM     22  O   LIG    1      -15.688  -2.058 134.263  0.00  0.00    -0.270 OA
BRANCH  22  23
ATOM     23  P   LIG    1      -15.936  -3.320 135.173  0.00  0.00    +0.219 P 
ATOM     24  O   LIG    1      -16.383  -4.525 134.378  0.00  0.00    -0.437 OA
ATOM     25  O   LIG    1      -14.464  -3.506 135.962  0.00  0.00    -0.517 OA
BRANCH  23  26
ATOM     26  O   LIG    1      -17.072  -2.860 136.194  0.00  0.00    -0.311 OA
BRANCH  26  27
ATOM     27  C   LIG    1      -18.273  -3.631 136.277  0.00  0.00    +0.181 C 
BRANCH  27  28
ATOM     28  C   LIG    1      -19.198  -3.054 137.340  0.00  0.00    +0.178 C 
ATOM     29  C   LIG    1      -20.425  -2.435 136.685  0.00  0.00    +0.214 C 
ATOM     30  O   LIG    1      -21.550  -3.325 136.704  0.00  0.00    -0.218 OA
ATOM     31  C   LIG    1      -20.694  -1.170 137.483  0.00  0.00    +0.214 C 
ATOM     32  O   LIG    1      -21.846  -1.346 138.334  0.00  0.00    -0.218 OA
ATOM     33  C   LIG    1      -19.405  -0.894 138.273  0.00  0.00    +0.178 C 
ATOM     34  O   LIG    1      -18.535  -2.015 138.075  0.00  0.00    -0.348 OA
ENDBRANCH  27  28
ENDBRANCH  26  27
ENDBRANCH  23  26
ENDBRANCH  22  23
ENDBRANCH  19  22
ENDBRANCH  18  19
ENDBRANCH  17  18
ENDBRANCH   1  17
BRANCH   4  35
ATOM     35  O   LIG    1      -13.641   1.284 140.473  0.00  0.00    -0.265 OA
BRANCH  35  36
ATOM     36  P   LIG    1      -12.890  -0.096 140.833  0.00  0.00    +0.533 P 
ATOM     37  O   LIG    1      -11.887   0.266 142.148  0.00  0.00    -0.115 OA
ATOM     38  O   LIG    1      -13.871  -1.193 141.271  0.00  0.00    -0.115 OA
ATOM     39  O   LIG    1      -11.864  -0.593 139.569  0.00  0.00    -0.222 OA
ENDBRANCH  35  36
ENDBRANCH   4  35
TORSDOF 11
ENDMDL
MODEL 5
REMARK VINA RESULT:      -7.3      3.335      6.073
REMARK  Name = /ddnB/work/jaydy/dat/BioLip/ligand_nr/h6/1h6v_NDP_B_1.pdb
REMARK                            x       y       z     vdW  Elec       q    Type
REMARK                         _______ _______ _______ _____ _____    ______ ____
ROOT
ATOM      1  C   LIG    1      -19.781  -1.584 135.858  0.00  0.00    +0.180 C 
ATOM      2  O   LIG    1      -18.991  -0.644 136.579  0.00  0.00    -0.331 OA
ATOM      3  C   LIG    1      -17.748  -0.330 136.005  0.00  0.00    +0.238 C 
ATOM      4  C   LIG    1      -17.590  -1.287 134.877  0.00  0.00    +0.208 C 
ATOM      5  C   LIG    1      -19.054  -1.667 134.530  0.00  0.00    +0.213 C 
ATOM      6  O   LIG    1      -19.743  -0.737 133.651  0.00  0.00    -0.218 OA
ENDROOT
BRANCH   3   7
ATOM      7  N   LIG    1      -16.750  -0.652 137.038  0.00  0.00    -0.269 N 
ATOM      8  C   LIG    1      -16.314  -1.882 137.409  0.00  0.00    +0.182 A 
ATOM      9  N   LIG    1      -15.375  -1.804 138.385  0.00  0.00    -0.219 NA
ATOM     10  C   LIG    1      -15.185  -0.504 138.636  0.00  0.00    +0.152 A 
ATOM     11  C   LIG    1      -14.260   0.280 139.551  0.00  0.00    +0.192 A 
ATOM     12  N   LIG    1      -13.327  -0.329 140.425  0.00  0.00    -0.105 NA
ATOM     13  N   LIG    1      -14.393   1.657 139.437  0.00  0.00    -0.204 NA
ATOM     14  C   LIG    1      -15.320   2.239 138.547  0.00  0.00    +0.202 A 
ATOM     15  N   LIG    1      -16.210   1.593 137.740  0.00  0.00    -0.205 NA
ATOM     16  C   LIG    1      -16.121   0.255 137.747  0.00  0.00    +0.169 A 
ENDBRANCH   3   7
BRANCH   1  17
ATOM     17  C   LIG    1      -19.892  -2.793 136.787  0.00  0.00    +0.181 C 
BRANCH  17  18
ATOM     18  O   LIG    1      -21.109  -3.527 136.789  0.00  0.00    -0.311 OA
BRANCH  18  19
ATOM     19  P   LIG    1      -22.321  -2.688 137.443  0.00  0.00    +0.219 P 
ATOM     20  O   LIG    1      -23.249  -2.216 136.361  0.00  0.00    -0.437 OA
ATOM     21  O   LIG    1      -23.053  -3.743 138.547  0.00  0.00    -0.517 OA
BRANCH  19  22
ATOM     22  O   LIG    1      -21.775  -1.494 138.363  0.00  0.00    -0.270 OA
BRANCH  22  23
ATOM     23  P   LIG    1      -22.442  -0.070 138.273  0.00  0.00    +0.219 P 
ATOM     24  O   LIG    1      -22.438   0.480 136.866  0.00  0.00    -0.437 OA
ATOM     25  O   LIG    1      -23.971  -0.332 138.920  0.00  0.00    -0.517 OA
BRANCH  23  26
ATOM     26  O   LIG    1      -21.565   0.845 139.243  0.00  0.00    -0.311 OA
BRANCH  26  27
ATOM     27  C   LIG    1      -20.661   1.789 138.663  0.00  0.00    +0.181 C 
BRANCH  27  28
ATOM     28  C   LIG    1      -19.264   1.605 139.242  0.00  0.00    +0.178 C 
ATOM     29  C   LIG    1      -19.289   0.553 140.341  0.00  0.00    +0.214 C 
ATOM     30  O   LIG    1      -18.867  -0.732 139.864  0.00  0.00    -0.218 OA
ATOM     31  C   LIG    1      -18.354   1.090 141.413  0.00  0.00    +0.214 C 
ATOM     32  O   LIG    1      -17.113   0.354 141.414  0.00  0.00    -0.218 OA
ATOM     33  C   LIG    1      -18.163   2.580 141.090  0.00  0.00    +0.178 C 
ATOM     34  O   LIG    1      -18.798   2.829 139.829  0.00  0.00    -0.348 OA
ENDBRANCH  27  28
ENDBRANCH  26  27
ENDBRANCH  23  26
ENDBRANCH  22  23
ENDBRANCH  19  22
ENDBRANCH  18  19
ENDBRANCH  17  18
ENDBRANCH   1  17
BRANCH   4  35
ATOM     35  O   LIG    1      -16.722  -0.695 133.890  0.00  0.00    -0.265 OA
BRANCH  35  36
ATOM     36  P   LIG    1      -15.662  -1.708 133.219  0.00  0.00    +0.533 P 
ATOM     37  O   LIG    1      -16.527  -2.538 132.023  0.00  0.00    -0.115 OA
ATOM     38  O   LIG    1      -14.502  -0.967 132.540  0.00  0.00    -0.115 OA
ATOM     39  O   LIG    1      -15.135  -2.883 134.332  0.00  0.00    -0.222 OA
ENDBRANCH  35  36
ENDBRANCH   4  35
TORSDOF 11
ENDMDL
MODEL 6
REMARK VINA RESULT:      -7.3      1.338      2.088
REMARK  Name = /ddnB/work/jaydy/dat/BioLip/ligand_nr/h6/1h6v_NDP_B_1.pdb
REMARK                            x       y       z     vdW  Elec       q    Type
REMARK                         _______ _______ _______ _____ _____    ______ ____
ROOT
ATOM      1  C   LIG    1      -16.016  -1.984 136.764  0.00  0.00    +0.180 C 
ATOM      2  O   LIG    1      -17.186  -2.693 137.160  0.00  0.00    -0.331 OA
ATOM      3  C   LIG    1      -18.001  -3.151 136.112  0.00  0.00    +0.238 C 
ATOM      4  C   LIG    1      -17.432  -2.536 134.882  0.00  0.00    +0.208 C 
ATOM      5  C   LIG    1      -15.956  -2.264 135.275  0.00  0.00    +0.213 C 
ATOM      6  O   LIG    1      -15.058  -3.398 135.130  0.00  0.00    -0.218 OA
ENDROOT
BRANCH   3   7
ATOM      7  N   LIG    1      -19.326  -2.561 136.362  0.00  0.00    -0.269 N 
ATOM      8  C   LIG    1      -19.734  -1.299 136.081  0.00  0.00    +0.182 A 
ATOM      9  N   LIG    1      -21.028  -1.102 136.434  0.00  0.00    -0.219 NA
ATOM     10  C   LIG    1      -21.473  -2.261 136.934  0.00  0.00    +0.152 A 
ATOM     11  C   LIG    1      -22.812  -2.752 137.456  0.00  0.00    +0.192 A 
ATOM     12  N   LIG    1      -23.968  -1.938 137.523  0.00  0.00    -0.105 NA
ATOM     13  N   LIG    1      -22.809  -4.086 137.841  0.00  0.00    -0.204 NA
ATOM     14  C   LIG    1      -21.647  -4.879 137.749  0.00  0.00    +0.202 A 
ATOM     15  N   LIG    1      -20.407  -4.485 137.339  0.00  0.00    -0.205 NA
ATOM     16  C   LIG    1      -20.324  -3.222 136.901  0.00  0.00    +0.169 A 
ENDBRANCH   3   7
BRANCH   1  17
ATOM     17  C   LIG    1      -16.218  -0.568 137.304  0.00  0.00    +0.181 C 
BRANCH  17  18
ATOM     18  O   LIG    1      -16.724  -0.421 138.625  0.00  0.00    -0.311 OA
BRANCH  18  19
ATOM     19  P   LIG    1      -15.621   0.191 139.631  0.00  0.00    +0.219 P 
ATOM     20  O   LIG    1      -16.010  -0.110 141.049  0.00  0.00    -0.437 OA
ATOM     21  O   LIG    1      -14.153  -0.516 139.170  0.00  0.00    -0.517 OA
BRANCH  19  22
ATOM     22  O   LIG    1      -15.390   1.754 139.363  0.00  0.00    -0.270 OA
BRANCH  22  23
ATOM     23  P   LIG    1      -16.614   2.745 139.413  0.00  0.00    +0.219 P 
ATOM     24  O   LIG    1      -16.244   4.088 139.999  0.00  0.00    -0.437 OA
ATOM     25  O   LIG    1      -17.121   2.793 137.811  0.00  0.00    -0.517 OA
BRANCH  23  26
ATOM     26  O   LIG    1      -17.692   2.004 140.327  0.00  0.00    -0.311 OA
BRANCH  26  27
ATOM     27  C   LIG    1      -18.477   2.786 141.231  0.00  0.00    +0.181 C 
BRANCH  27  28
ATOM     28  C   LIG    1      -19.315   1.879 142.122  0.00  0.00    +0.178 C 
ATOM     29  C   LIG    1      -20.752   1.837 141.622  0.00  0.00    +0.214 C 
ATOM     30  O   LIG    1      -21.007   0.677 140.818  0.00  0.00    -0.218 OA
ATOM     31  C   LIG    1      -21.601   1.845 142.883  0.00  0.00    +0.214 C 
ATOM     32  O   LIG    1      -22.165   0.538 143.120  0.00  0.00    -0.218 OA
ATOM     33  C   LIG    1      -20.666   2.304 144.012  0.00  0.00    +0.178 C 
ATOM     34  O   LIG    1      -19.343   2.380 143.467  0.00  0.00    -0.348 OA
ENDBRANCH  27  28
ENDBRANCH  26  27
ENDBRANCH  23  26
ENDBRANCH  22  23
ENDBRANCH  19  22
ENDBRANCH  18  19
ENDBRANCH  17  18
ENDBRANCH   1  17
BRANCH   4  35
ATOM     35  O   LIG    1      -17.759  -3.374 133.756  0.00  0.00    -0.265 OA
BRANCH  35  36
ATOM     36  P   LIG    1      -18.037  -2.584 132.377  0.00  0.00    +0.533 P 
ATOM     37  O   LIG    1      -19.722  -2.480 132.250  0.00  0.00    -0.115 OA
ATOM     38  O   LIG    1      -17.472  -1.157 132.403  0.00  0.00    -0.115 OA
ATOM     39  O   LIG    1      -17.508  -3.481 131.031  0.00  0.00    -0.222 OA
ENDBRANCH  35  36
ENDBRANCH   4  35
TORSDOF 11
ENDMDL
MODEL 7
REMARK VINA RESULT:      -7.2      3.547      7.548
REMARK  Name = /ddnB/work/jaydy/dat/BioLip/ligand_nr/h6/1h6v_NDP_B_1.pdb
REMARK                            x       y       z     vdW  Elec       q    Type
REMARK                         _______ _______ _______ _____ _____    ______ ____
ROOT
ATOM      1  C   LIG    1      -18.084   1.909 136.558  0.00  0.00    +0.180 C 
ATOM      2  O   LIG    1      -18.226   2.763 137.689  0.00  0.00    -0.331 OA
ATOM      3  C   LIG    1      -17.310   2.546 138.731  0.00  0.00    +0.238 C 
ATOM      4  C   LIG    1      -16.587   1.300 138.358  0.00  0.00    +0.208 C 
ATOM      5  C   LIG    1      -16.742   1.252 136.815  0.00  0.00    +0.213 C 
ATOM      6  O   LIG    1      -15.774   2.041 136.071  0.00  0.00    -0.218 OA
ENDROOT
BRANCH   3   7
ATOM      7  N   LIG    1      -18.131   2.275 139.922  0.00  0.00    -0.269 N 
ATOM      8  C   LIG    1      -18.446   1.065 140.449  0.00  0.00    +0.182 A 
ATOM      9  N   LIG    1      -19.211   1.190 141.561  0.00  0.00    -0.219 NA
ATOM     10  C   LIG    1      -19.379   2.501 141.770  0.00  0.00    +0.152 A 
ATOM     11  C   LIG    1      -20.065   3.329 142.843  0.00  0.00    +0.192 A 
ATOM     12  N   LIG    1      -20.754   2.764 143.943  0.00  0.00    -0.105 NA
ATOM     13  N   LIG    1      -19.937   4.700 142.661  0.00  0.00    -0.204 NA
ATOM     14  C   LIG    1      -19.233   5.237 141.563  0.00  0.00    +0.202 A 
ATOM     15  N   LIG    1      -18.641   4.550 140.544  0.00  0.00    -0.205 NA
ATOM     16  C   LIG    1      -18.672   3.215 140.660  0.00  0.00    +0.169 A 
ENDBRANCH   3   7
BRANCH   1  17
ATOM     17  C   LIG    1      -19.379   1.097 136.519  0.00  0.00    +0.181 C 
BRANCH  17  18
ATOM     18  O   LIG    1      -19.349  -0.181 135.899  0.00  0.00    -0.311 OA
BRANCH  18  19
ATOM     19  P   LIG    1      -20.822  -0.679 135.467  0.00  0.00    +0.219 P 
ATOM     20  O   LIG    1      -21.857   0.042 136.281  0.00  0.00    -0.437 OA
ATOM     21  O   LIG    1      -20.932  -0.366 133.806  0.00  0.00    -0.517 OA
BRANCH  19  22
ATOM     22  O   LIG    1      -20.950  -2.273 135.563  0.00  0.00    -0.270 OA
BRANCH  22  23
ATOM     23  P   LIG    1      -20.533  -3.013 136.890  0.00  0.00    +0.219 P 
ATOM     24  O   LIG    1      -20.119  -2.051 137.980  0.00  0.00    -0.437 OA
ATOM     25  O   LIG    1      -21.894  -3.934 137.246  0.00  0.00    -0.517 OA
BRANCH  23  26
ATOM     26  O   LIG    1      -19.313  -3.947 136.462  0.00  0.00    -0.311 OA
BRANCH  26  27
ATOM     27  C   LIG    1      -17.982  -3.448 136.615  0.00  0.00    +0.181 C 
BRANCH  27  28
ATOM     28  C   LIG    1      -17.270  -3.421 135.269  0.00  0.00    +0.178 C 
ATOM     29  C   LIG    1      -16.079  -2.477 135.326  0.00  0.00    +0.214 C 
ATOM     30  O   LIG    1      -14.848  -3.178 135.554  0.00  0.00    -0.218 OA
ATOM     31  C   LIG    1      -16.080  -1.768 133.981  0.00  0.00    +0.214 C 
ATOM     32  O   LIG    1      -15.017  -2.270 133.144  0.00  0.00    -0.218 OA
ATOM     33  C   LIG    1      -17.475  -2.013 133.384  0.00  0.00    +0.178 C 
ATOM     34  O   LIG    1      -18.152  -2.939 134.243  0.00  0.00    -0.348 OA
ENDBRANCH  27  28
ENDBRANCH  26  27
ENDBRANCH  23  26
ENDBRANCH  22  23
ENDBRANCH  19  22
ENDBRANCH  18  19
ENDBRANCH  17  18
ENDBRANCH   1  17
BRANCH   4  35
ATOM     35  O   LIG    1      -15.284   1.322 138.974  0.00  0.00    -0.265 OA
BRANCH  35  36
ATOM     36  P   LIG    1      -14.789  -0.092 139.571  0.00  0.00    +0.533 P 
ATOM     37  O   LIG    1      -13.097  -0.027 139.538  0.00  0.00    -0.115 OA
ATOM     38  O   LIG    1      -15.229  -0.293 141.027  0.00  0.00    -0.115 OA
ATOM     39  O   LIG    1      -15.239  -1.385 138.559  0.00  0.00    -0.222 OA
ENDBRANCH  35  36
ENDBRANCH   4  35
TORSDOF 11
ENDMDL
MODEL 8
REMARK VINA RESULT:      -7.0      1.436      2.248
REMARK  Name = /ddnB/work/jaydy/dat/BioLip/ligand_nr/h6/1h6v_NDP_B_1.pdb
REMARK                            x       y       z     vdW  Elec       q    Type
REMARK                         _______ _______ _______ _____ _____    ______ ____
ROOT
ATOM      1  C   LIG    1      -16.102  -1.954 136.709  0.00  0.00    +0.180 C 
ATOM      2  O   LIG    1      -17.237  -2.710 137.119  0.00  0.00    -0.331 OA
ATOM      3  C   LIG    1      -18.063  -3.176 136.083  0.00  0.00    +0.238 C 
ATOM      4  C   LIG    1      -17.546  -2.519 134.851  0.00  0.00    +0.208 C 
ATOM      5  C   LIG    1      -16.070  -2.205 135.213  0.00  0.00    +0.213 C 
ATOM      6  O   LIG    1      -15.139  -3.305 135.024  0.00  0.00    -0.218 OA
ENDROOT
BRANCH   3   7
ATOM      7  N   LIG    1      -19.400  -2.637 136.377  0.00  0.00    -0.269 N 
ATOM      8  C   LIG    1      -19.856  -1.383 136.134  0.00  0.00    +0.182 A 
ATOM      9  N   LIG    1      -21.147  -1.238 136.521  0.00  0.00    -0.219 NA
ATOM     10  C   LIG    1      -21.541  -2.421 137.006  0.00  0.00    +0.152 A 
ATOM     11  C   LIG    1      -22.850  -2.967 137.548  0.00  0.00    +0.192 A 
ATOM     12  N   LIG    1      -24.031  -2.195 137.660  0.00  0.00    -0.105 NA
ATOM     13  N   LIG    1      -22.794  -4.309 137.903  0.00  0.00    -0.204 NA
ATOM     14  C   LIG    1      -21.609  -5.061 137.766  0.00  0.00    +0.202 A 
ATOM     15  N   LIG    1      -20.393  -4.617 137.336  0.00  0.00    -0.205 NA
ATOM     16  C   LIG    1      -20.363  -3.342 136.924  0.00  0.00    +0.169 A 
ENDBRANCH   3   7
BRANCH   1  17
ATOM     17  C   LIG    1      -16.338  -0.557 137.281  0.00  0.00    +0.181 C 
BRANCH  17  18
ATOM     18  O   LIG    1      -15.545   0.513 136.784  0.00  0.00    -0.311 OA
BRANCH  18  19
ATOM     19  P   LIG    1      -16.434   1.621 136.019  0.00  0.00    +0.219 P 
ATOM     20  O   LIG    1      -16.867   1.086 134.684  0.00  0.00    -0.437 OA
ATOM     21  O   LIG    1      -17.726   1.957 137.061  0.00  0.00    -0.517 OA
BRANCH  19  22
ATOM     22  O   LIG    1      -15.659   3.019 135.911  0.00  0.00    -0.270 OA
BRANCH  22  23
ATOM     23  P   LIG    1      -14.714   3.481 137.084  0.00  0.00    +0.219 P 
ATOM     24  O   LIG    1      -13.677   2.439 137.432  0.00  0.00    -0.437 OA
ATOM     25  O   LIG    1      -14.087   4.930 136.508  0.00  0.00    -0.517 OA
BRANCH  23  26
ATOM     26  O   LIG    1      -15.697   3.738 138.314  0.00  0.00    -0.311 OA
BRANCH  26  27
ATOM     27  C   LIG    1      -15.289   3.315 139.617  0.00  0.00    +0.181 C 
BRANCH  27  28
ATOM     28  C   LIG    1      -15.940   1.983 139.967  0.00  0.00    +0.178 C 
ATOM     29  C   LIG    1      -17.060   2.197 140.974  0.00  0.00    +0.214 C 
ATOM     30  O   LIG    1      -18.347   2.248 140.342  0.00  0.00    -0.218 OA
ATOM     31  C   LIG    1      -16.951   1.023 141.932  0.00  0.00    +0.214 C 
ATOM     32  O   LIG    1      -18.012   0.075 141.694  0.00  0.00    -0.218 OA
ATOM     33  C   LIG    1      -15.554   0.425 141.700  0.00  0.00    +0.178 C 
ATOM     34  O   LIG    1      -14.984   1.099 140.571  0.00  0.00    -0.348 OA
ENDBRANCH  27  28
ENDBRANCH  26  27
ENDBRANCH  23  26
ENDBRANCH  22  23
ENDBRANCH  19  22
ENDBRANCH  18  19
ENDBRANCH  17  18
ENDBRANCH   1  17
BRANCH   4  35
ATOM     35  O   LIG    1      -17.873  -3.347 133.718  0.00  0.00    -0.265 OA
BRANCH  35  36
ATOM     36  P   LIG    1      -18.062  -2.553 132.327  0.00  0.00    +0.533 P 
ATOM     37  O   LIG    1      -19.736  -2.400 132.119  0.00  0.00    -0.115 OA
ATOM     38  O   LIG    1      -17.459  -1.142 132.378  0.00  0.00    -0.115 OA
ATOM     39  O   LIG    1      -17.496  -3.467 131.007  0.00  0.00    -0.222 OA
ENDBRANCH  35  36
ENDBRANCH   4  35
TORSDOF 11
ENDMDL
MODEL 9
REMARK VINA RESULT:      -7.0      3.201      5.928
REMARK  Name = /ddnB/work/jaydy/dat/BioLip/ligand_nr/h6/1h6v_NDP_B_1.pdb
REMARK                            x       y       z     vdW  Elec       q    Type
REMARK                         _______ _______ _______ _____ _____    ______ ____
ROOT
ATOM      1  C   LIG    1      -20.185  -0.801 136.078  0.00  0.00    +0.180 C 
ATOM      2  O   LIG    1      -19.085   0.038 136.417  0.00  0.00    -0.331 OA
ATOM      3  C   LIG    1      -17.856  -0.308 135.833  0.00  0.00    +0.238 C 
ATOM      4  C   LIG    1      -18.096  -1.621 135.175  0.00  0.00    +0.208 C 
ATOM      5  C   LIG    1      -19.627  -1.616 134.927  0.00  0.00    +0.213 C 
ATOM      6  O   LIG    1      -20.056  -0.928 133.721  0.00  0.00    -0.218 OA
ENDROOT
BRANCH   3   7
ATOM      7  N   LIG    1      -16.931  -0.509 136.960  0.00  0.00    -0.269 N 
ATOM      8  C   LIG    1      -16.801  -1.615 137.734  0.00  0.00    +0.182 A 
ATOM      9  N   LIG    1      -15.837  -1.455 138.674  0.00  0.00    -0.219 NA
ATOM     10  C   LIG    1      -15.320  -0.235 138.494  0.00  0.00    +0.152 A 
ATOM     11  C   LIG    1      -14.195   0.551 139.145  0.00  0.00    +0.192 A 
ATOM     12  N   LIG    1      -13.411   0.053 140.213  0.00  0.00    -0.105 NA
ATOM     13  N   LIG    1      -13.984   1.802 138.579  0.00  0.00    -0.204 NA
ATOM     14  C   LIG    1      -14.770   2.269 137.505  0.00  0.00    +0.202 A 
ATOM     15  N   LIG    1      -15.822   1.635 136.913  0.00  0.00    -0.205 NA
ATOM     16  C   LIG    1      -16.070   0.396 137.362  0.00  0.00    +0.169 A 
ENDBRANCH   3   7
BRANCH   1  17
ATOM     17  C   LIG    1      -20.596  -1.455 137.397  0.00  0.00    +0.181 C 
BRANCH  17  18
ATOM     18  O   LIG    1      -20.351  -0.743 138.603  0.00  0.00    -0.311 OA
BRANCH  18  19
ATOM     19  P   LIG    1      -21.619   0.149 139.047  0.00  0.00    +0.219 P 
ATOM     20  O   LIG    1      -21.404   1.575 138.627  0.00  0.00    -0.437 OA
ATOM     21  O   LIG    1      -22.959  -0.577 138.309  0.00  0.00    -0.517 OA
BRANCH  19  22
ATOM     22  O   LIG    1      -21.919  -0.002 140.614  0.00  0.00    -0.270 OA
BRANCH  22  23
ATOM     23  P   LIG    1      -22.725   1.121 141.368  0.00  0.00    +0.219 P 
ATOM     24  O   LIG    1      -23.837   1.698 140.524  0.00  0.00    -0.437 OA
ATOM     25  O   LIG    1      -23.237   0.339 142.765  0.00  0.00    -0.517 OA
BRANCH  23  26
ATOM     26  O   LIG    1      -21.635   2.235 141.710  0.00  0.00    -0.311 OA
BRANCH  26  27
ATOM     27  C   LIG    1      -20.719   1.992 142.781  0.00  0.00    +0.181 C 
BRANCH  27  28
ATOM     28  C   LIG    1      -19.285   2.075 142.277  0.00  0.00    +0.178 C 
ATOM     29  C   LIG    1      -19.219   2.941 141.027  0.00  0.00    +0.214 C 
ATOM     30  O   LIG    1      -18.809   4.283 141.325  0.00  0.00    -0.218 OA
ATOM     31  C   LIG    1      -18.224   2.238 140.119  0.00  0.00    +0.214 C 
ATOM     32  O   LIG    1      -16.974   2.958 140.086  0.00  0.00    -0.218 OA
ATOM     33  C   LIG    1      -18.079   0.816 140.683  0.00  0.00    +0.178 C 
ATOM     34  O   LIG    1      -18.800   0.771 141.920  0.00  0.00    -0.348 OA
ENDBRANCH  27  28
ENDBRANCH  26  27
ENDBRANCH  23  26
ENDBRANCH  22  23
ENDBRANCH  19  22
ENDBRANCH  18  19
ENDBRANCH  17  18
ENDBRANCH   1  17
BRANCH   4  35
ATOM     35  O   LIG    1      -17.166  -1.765 134.083  0.00  0.00    -0.265 OA
BRANCH  35  36
ATOM     36  P   LIG    1      -16.500  -3.227 133.944  0.00  0.00    +0.533 P 
ATOM     37  O   LIG    1      -15.151  -3.207 134.967  0.00  0.00    -0.115 OA
ATOM     38  O   LIG    1      -17.442  -4.341 134.421  0.00  0.00    -0.115 OA
ATOM     39  O   LIG    1      -15.906  -3.492 132.371  0.00  0.00    -0.222 OA
ENDBRANCH  35  36
ENDBRANCH   4  35
TORSDOF 11
ENDMDL
